77
0 1
 C                  7.84469600   -0.20259100   -0.67239200
 C                  7.215900   -1.37516100   -1.08264500
 C                  5.83007900   -1.53723100   -0.93373900
 C                  5.06863500   -0.469500   -0.334800
 C                  5.72124800    0.72026100    0.05059000
 C                  7.10970700    0.833200   -0.10111100
 C                  3.65682400   -0.59227900   -0.24655400
 C                  2.86845700    0.49928900    0.22765400
 C                  3.56697000    1.66463400    0.70822900
 C                  4.92056400    1.75723500    0.63166600
 C                  5.15071700   -2.74530300   -1.30989500
 C                  3.81110800   -2.88872500   -1.12799500
 C                  3.02150500   -1.82302600   -0.58004100
 N                  1.71498100   -2.03931400   -0.34235800
 C                  0.99461700   -1.00408700    0.06911000
 C                  1.47383200    0.29275200    0.23845600
 C                 -0.38605400   -1.22616800    0.70222300
 C                 -1.47335100   -0.29315900    0.24056300
 C                 -0.99326900    1.00464500    0.07207500
 C                  0.38845900    1.22291000    0.70898100
 C                 -2.86939000   -0.49952000    0.23062400
 C                 -3.65657900    0.59172000   -0.24612600
 C                 -3.02076500    1.82202600   -0.58086500
 N                 -1.71272000    2.038700   -0.34276100
 C                 -5.06809700    0.46942300   -0.332800
 C                 -5.82943000    1.536600   -0.93419200
 C                 -5.15030300    2.74419500   -1.31047900
 C                 -3.809100    2.88751000   -1.12844700
 C                 -3.56674200   -1.66438800    0.70939700
 C                 -4.92117200   -1.75693100    0.63208700
 C                 -5.72075300   -0.72018000    0.05123700
 C                 -7.10992200   -0.83306900   -0.10052100
 C                 -7.84470400    0.20227300   -0.67218400
 C                 -7.21537800    1.37472300   -1.08293300
 C                  0.74685100    2.68553800    0.55813000
 C                 -0.74731600   -2.68630100    0.55640700
 C                 -1.13424100   -3.05966900   -0.74081900
 C                 -1.45118500   -4.37669400   -1.03332400
 C                 -1.38144700   -5.34452100   -0.02765200
 C                 -0.98362300   -4.997400    1.25534600
 C                 -0.65623000   -3.64889500    1.55100400
 C                  0.65556100    3.64903100    1.55145100
 C                  0.98266300    4.97809900    1.25552200
 C                  1.38061500    5.34466300   -0.02733400
 C                  1.45047400    4.37638800   -1.03248600
 C                  1.13349200    3.05913500   -0.73965700
 H                  1.63374500    6.388400   -0.23346300
 H                 -1.63464000   -6.376600   -0.23362100
 H                  3.29941000   -3.80831700   -1.38378900
 H                  5.73691900   -3.55867900   -1.72301300
 H                  7.79919300   -2.18202300   -1.51258600
 H                  8.91733900   -0.10050000   -0.78828600
 H                  7.60756100    1.73814100    0.22898300
 H                  5.41819300    2.64813200    0.99905700
 H                  3.01060400    2.48013600    1.13865400
 H                 -1.18589300   -2.31122200   -1.52148700
 H                 -1.74857400   -4.65613800   -2.03666200
 H                 -0.34534200   -3.36525200    2.55028800
 H                 -0.92910600   -5.71960100    2.04480400
 H                  0.34525700    3.36534800    2.55080100
 H                  0.92810200    5.71968600    2.04507300
 H                  1.74789700    4.655500   -2.03591300
 H                  1.18551300    2.31100900   -1.52063600
 H                 -3.29851500    3.80720400   -1.38460900
 H                 -5.73604600    3.55764700   -1.72403800
 H                 -7.79875300    2.18156100   -1.51293700
 H                 -8.91728500    0.10039700   -0.78807200
 H                 -7.60766400   -1.73782100    0.22990800
 H                 -5.41855900   -2.64793400    0.99934600
 H                 -3.01072100   -2.47979300    1.14034300
 O                 -0.13645600   -0.75979000    2.11142200
 O                  0.13221400    0.76820900    2.12019500
