77
0 1
 C                  7.84920400   -0.21056000   -0.67009900
 C                  7.21931600   -1.38427600   -1.07671100
 C                  5.83206400   -1.54335300   -0.93310000
 C                  5.06996500   -0.47216400   -0.38499000
 C                  5.72261100    0.71938600    0.03782900
 C                  7.11353400    0.82902600   -0.10804300
 C                  3.65814300   -0.59159900   -0.25843400
 C                  2.87138800    0.50203600    0.21388800
 C                  3.56811900    1.66911500    0.68525300
 C                  4.92346000    1.76114300    0.60732400
 C                  5.15261300   -2.74938300   -1.31083800
 C                  3.81014000   -2.88959200   -1.13332900
 C                  3.02173100   -1.82147000   -0.59248900
 N                  1.71090400   -2.03564100   -0.35724400
 C                  0.99459500   -1.00283100    0.05833300
 C                  1.47473600    0.293900    0.22089600
 C                 -0.38990100   -1.21396300    0.70968100
 C                 -1.47584300   -0.29261500    0.21473000
 C                 -0.99876700    1.00099200    0.04717000
 C                  0.38255000    1.22356200    0.68558600
 C                 -2.86796100   -0.50089600    0.20401500
 C                 -3.65862300    0.59346100   -0.26097200
 C                 -3.02415100    1.82468000   -0.59200000
 N                 -1.71802100    2.04032700   -0.35827900
 C                 -5.07140100    0.47326600   -0.38538500
 C                 -5.83388400    1.54429100   -0.93359000
 C                 -5.15394100    2.75156700   -1.31303000
 C                 -3.81448900    2.89283200   -1.13565800
 C                 -3.56805000   -1.66879400    0.68284700
 C                 -4.92089000   -1.76069100    0.60909300
 C                 -5.72371500   -0.71901500    0.03764500
 C                 -7.11237400   -0.82924300   -0.100200
 C                 -7.84872500    0.21111700   -0.67020000
 C                 -7.22033000    1.38456200   -1.033700
 C                  0.74101600    2.68738700    0.56797900
 C                 -0.73989500   -2.68481100    0.57416300
 C                 -1.12119400   -3.07803100   -0.72106400
 C                 -1.44242500   -4.39839800   -0.99534400
 C                 -1.37638200   -5.35255400    0.02301600
 C                 -0.97951600   -4.96855200    1.300500
 C                 -0.65285500   -3.63528400    1.57946300
 C                  0.65324100    3.63392400    1.57838800
 C                  0.97931800    4.96800300    1.30210800
 C                  1.37567100    5.35391000    0.02434200
 C                  1.44318000    4.40233500   -0.99674100
 C                  1.12366300    3.08182700   -0.72499100
 H                  1.62746100    6.38976100   -0.17091300
 H                 -1.62951300   -6.38762700   -0.17398500
 H                  3.29656600   -3.80748300   -1.39267600
 H                  5.73604800   -3.56129000   -1.73010900
 H                  7.80224900   -2.19373600   -1.50224100
 H                  8.92186300   -0.11006200   -0.78563700
 H                  7.61122100    1.73585900    0.21674400
 H                  5.42221100    2.65245400    0.97260900
 H                  3.01613700    2.48075600    1.12371900
 H                 -1.16747800   -2.34167200   -1.51442500
 H                 -1.74148200   -4.68929700   -1.99514600
 H                 -0.34605700   -3.34045000    2.57621500
 H                 -0.92289500   -5.70268700    2.09682300
 H                  0.34433600    3.33780500    2.57449600
 H                  0.92149900    5.70142600    2.09864600
 H                  1.74219600    4.69576500   -1.99587600
 H                  1.17008700    2.34553100   -1.51840400
 H                 -3.29988600    3.81024500   -1.39522100
 H                 -5.73901000    3.56235200   -1.73245800
 H                 -7.80347800    2.19324900   -1.50417200
 H                 -8.92156400    0.10971100   -0.78552900
 H                 -7.61036100   -1.73597600    0.21734000
 H                 -5.42013000   -2.65086300    0.906500
 H                 -3.01453700   -2.48055600    1.11955100
 O                 -0.116600   -0.74994000    2.11818500
 O                  0.13557500    0.71925300    2.08855500
