80
 C         7.509507525052      2.404489989745      0.023198683248
 C         6.628890542543      3.408141776604      0.441460235926
 C         5.254020987554      3.171575178920      0.512708868727
 C         4.755201653254      1.880884989382      0.167482696591
 C         5.653762214905      0.868338045117     -0.265414908523
 C         7.032479997473      1.152711260364     -0.332151872376
 C         3.361513616128      1.602429505000      0.249057735937
 C         2.853492189546      0.313414524592     -0.028199092367
 C         3.771337754988     -0.659584029349     -0.536644747831
 C         5.106103866068     -0.391079964306     -0.647880425108
 C         4.318582897983      4.190963460476      0.916458905582
 C         2.984466579856      3.951456625606      0.947481308762
 C         2.450917372016      2.659672709082      0.595546255297
 N         1.137177517283      2.505968231428      0.555824009612
 C         0.623815550816      1.277748437689      0.302444429585
 C         1.433460376947      0.102887843633      0.162167651366
 C        -0.798343498439      1.199551315221      0.145118668471
 C        -1.453357752061     -0.056588258883      0.148738078752
 C        -0.645563260459     -1.225706009897      0.338834038804
 C         0.778278031172     -1.152743304106      0.194818057760
 C        -2.871199487315     -0.273892988990     -0.050150524461
 C        -3.382552601834     -1.552582032414      0.266053216760
 C        -2.476109009253     -2.596956491455      0.659302972535
 N        -1.161976416904     -2.444474313417      0.628987253690
 C        -4.775290934143     -1.833976582126      0.178573940580
 C        -5.278208333861     -3.111969949141      0.562879117087
 C        -4.347561092392     -4.116512734170      1.012324345590
 C        -3.013828792422     -3.875816186158      1.049959901370
 C        -3.783081258727      0.680643005529     -0.602429843168
 C        -5.116567527394      0.408173648463     -0.719237972172
 C        -5.668734899570     -0.837277886234     -0.299351298290
 C        -7.046673535982     -1.124066646447     -0.371621434694
 C        -7.527906950882     -2.362813918797      0.021695442503
 C        -6.652238357471     -3.351136115590      0.484481430421
 C         1.517460388461     -2.437409842839      0.250324450509
 C        -1.537878630633      2.485208272536      0.147645502820
 C        -2.376826598080      2.822752739626      1.218413683270
 C        -3.073479167790      4.020222194396      1.221616029089
 C        -2.955440699011      4.908749999538      0.143384302833
 C        -2.114257877756      4.585543334006     -0.928092133801
 C        -1.405126102886      3.386508649252     -0.908743849593
 C         1.396513261299     -3.374810242131     -0.775619871873
 C         2.105507106944     -4.573701351749     -0.745296726185
 C         2.934353972989     -4.859439647937      0.346251698213
 C         3.040358481273     -3.934027327312      1.394283667561
 C         2.344091040647     -2.737485311591      1.341626410751
 O        -3.690736439260      6.049541579944      0.233939058762
 O         3.668269211995     -5.996311845116      0.484685979949
 C        -3.614057749103      6.998639631172     -0.832415843125
 H        -2.595247873192      7.380369598468     -0.952599266235
 H        -3.956355698872      6.563978404207     -1.776945962127
 H        -4.275283217254      7.815120452339     -0.549250166910
 C         3.603452281402     -6.981848569195     -0.548896321586
 H         2.585967132022     -7.367635167294     -0.667339866386
 H         3.956588353396     -6.580186572793     -1.503987116886
 H         4.261186479360     -7.787937000092     -0.230069732087
 H         2.001684694866     -5.270080652278     -1.565669954606
 H         0.754735346405     -3.149741423831     -1.618461281274
 H         2.444442889958     -2.023037518578      2.150398984918
 H         3.678084705328     -4.175172916155      2.236098231095
 H         2.273642910585      4.720460858641      1.224534598110
 H         4.706533693778      5.168517687321      1.181406449370
 H         7.012833720445      4.385661207419      0.711506551343
 H         8.571829362896      2.611934438717     -0.027562750476
 H         7.715577986950      0.380124253628     -0.666957486059
 H         5.772542924708     -1.148244903884     -1.046372636336
 H         3.405209337804     -1.617978973945     -0.863138952153
 H        -3.413116397959      1.627164468951     -0.957949369505
 H        -5.778339375176      1.150883961908     -1.151296961762
 H        -7.725818306753     -0.363729164037     -0.740752385186
 H        -8.589633529851     -2.572102653448     -0.033734580188
 H        -7.039381913437     -4.318740979046      0.784051708089
 H        -4.738654044999     -5.084330710766      1.306755983860
 H        -2.306310974255     -4.634579521061      1.361557397964
 H        -2.000998623032      5.253084036028     -1.770883305136
 H        -0.753765528774      3.132549199977     -1.735873717807
 H        -2.486477722317      2.136760950979      2.050285177568
 H        -3.720703913630      4.290258779682      2.047253741885
 O         0.362285402867     -0.533620626841     -2.202068297256
 O        -0.355222266833      0.497736087814     -2.224104199390
