77
0 1
 C                  7.50836000   -2.23659800   -0.65397200
 C                  6.58340000   -3.20762200   -1.03329000
 C                  5.20525700   -2.99928600   -0.85609800
 C                  4.76468800   -1.76960200   -0.29070900
 C                  5.712600   -0.78226100    0.09679600
 C                  7.08346700   -1.03857500   -0.09021200
 C                  3.331200   -1.52636700   -0.11452300
 C                  2.90974400   -0.27474800    0.38025100
 C                  3.89045400    0.67802400    0.81651700
 C                  5.22704900    0.42805300    0.68014500
 C                  4.22702500   -3.97901900   -1.22104400
 C                  2.89481600   -3.75902900   -1.01819700
 C                  2.43391900   -2.53374200   -0.45118000
 N                  1.11492400   -2.39591600   -0.18088400
 C                  0.69378800   -1.23516900    0.28459900
 C                  1.50804300   -0.09721900    0.40703500
 C                 -0.72205400   -1.15539300    0.95881200
 C                 -1.48559900    0.09355800    0.49897900
 C                 -0.68022800    1.22635500    0.25456500
 C                  0.164400    1.18996700    0.80703600
 C                 -2.89011700    0.25789700    0.43250600
 C                 -3.37654100    1.48441600   -0.11291900
 C                 -2.44769100    2.48732800   -0.498900
 N                 -1.12555700    2.36190100   -0.26044500
 C                 -4.011300    1.71542600   -0.28096500
 C                 -5.22829800    2.92341000   -0.88178600
 C                 -4.26090800    3.894400   -1.29459100
 C                 -2.92742300    3.69188800   -1.10406700
 C                 -3.86857100   -0.68235300    0.91009600
 C                 -5.20478300   -0.44511200    0.78090000
 C                 -5.70830300    0.73995800    0.15684700
 C                 -7.08116600    0.98088500   -0.01862300
 C                 -7.52207800    2.15688800   -0.61733400
 C                 -6.60939000    3.11881800   -1.04438300
 C                  1.51188200    2.47641700    0.39326900
 C                 -1.45916000   -2.48261400    0.65868900
 C                 -1.89576200   -2.75313700   -0.63802000
 C                 -2.55693200   -3.93993300   -0.94819600
 C                 -2.78145400   -4.89162600    0.05427000
 C                 -2.33398400   -4.63057500    1.35506100
 C                 -1.67638500   -3.43998000    1.64930000
 C                  1.64295000    3.53723700    1.28251800
 C                  2.27363700    4.72660400    0.90742100
 C                  2.474100    4.86703700   -0.38946000
 C                  2.63280000    3.80520700   -1.29798900
 C                  2.01668300    2.62698200   -0.90692700
 H                  2.15302700   -4.50636600   -1.27148600
 H                  4.56569600   -4.91251600   -1.65645500
 H                  6.92479200   -4.14010500   -1.46860100
 H                  8.56660100   -2.41900800   -0.79678500
 H                  7.803500   -0.28966000    0.20958900
 H                  5.94743800    1.15975400    1.02924600
 H                  3.56854900    1.59113800    1.29061800
 H                 -1.72688600   -2.03246600   -1.43006400
 H                 -2.88678800   -4.10929000   -1.96422600
 H                 -1.33739600   -3.24632500    2.65999300
 H                 -2.51025300   -5.37321000    2.12440700
 H                  1.24648800    3.43913600    2.28614000
 H                  2.35524600    5.52940100    1.62736400
 H                  3.01737400    3.92665400   -2.30385100
 H                  1.92397400    1.81981700   -1.62506500
 H                 -2.19235800    4.43243900   -1.39486300
 H                 -4.61297300    4.81444700   -1.75475400
 H                 -6.96253100    4.03394500   -1.50662000
 H                 -8.58378700    2.32830500   -0.74941900
 H                 -7.79652000    0.23928600    0.31904700
 H                 -5.91641200   -1.16844700    1.16413500
 H                 -3.54085200   -1.58268400    1.40330600
 O                 -0.46907800   -0.98356100    2.30703100
 O                  0.66837000    1.03333200    2.18123100
 O                 -3.41613500   -6.08296100   -0.13718700
 C                 -3.89419900   -6.40171300   -1.44526100
 H                 -3.07391700   -6.45215700   -2.16768000
 H                 -4.35982800   -7.38143000   -1.35875300
 H                 -4.63805600   -5.674800   -1.78567400
 O                  3.40323100    5.97698700   -0.86446400
 C                  3.59360700    7.08493500    0.01852000
 H                  4.20292600    6.80350500    0.88254700
 H                  4.11730500    7.84008400   -0.56400900
 H                  2.63606600    7.48871500    0.36069800
