77
0 1
 C                  7.49708100   -2.22997200   -0.65380000
 C                  6.55175600   -3.19253900   -1.02826300
 C                  5.18021100   -2.96566200   -0.84701600
 C                  4.75005200   -1.73107500   -0.27825600
 C                  5.71106400   -0.75968600    0.10213400
 C                  7.08660800   -1.03219000   -0.09406300
 C                  3.36667300   -1.46618600   -0.07073600
 C                  2.93937200   -0.24842200    0.51889200
 C                  3.91018300    0.69106200    0.89427500
 C                  5.25183700    0.44841800    0.68132100
 C                  4.18643300   -3.93215000   -1.20627100
 C                  2.85363700   -3.696300   -0.98978200
 C                  2.40582100   -2.47828600   -0.39388700
 N                  1.08734500   -2.33248700   -0.10240000
 C                  0.62572900   -1.25060300    0.49255800
 C                  1.47931700   -0.03680800    0.78650200
 C                 -0.806300   -1.21028800    1.02813400
 C                 -1.48629500    0.09385300    0.55226900
 C                 -0.69430900    1.22961500    0.27502600
 C                  0.148400    1.29680400    0.64018700
 C                 -2.88547400    0.268500    0.45959200
 C                 -3.37844400    1.48467300   -0.09966600
 C                 -2.45593600    2.49079700   -0.48407000
 N                 -1.144300    2.36788000   -0.24469500
 C                 -4.157800    1.71085400   -0.210300
 C                 -5.22895900    2.91851000   -0.88183100
 C                 -4.26138200    3.89569000   -1.29689500
 C                 -2.93216200    3.69362200   -1.10225800
 C                 -3.86637800   -0.68085900    0.92874400
 C                 -5.19925700   -0.45397200    0.78618100
 C                 -5.70821300    0.73242300    0.15822000
 C                 -7.082300    0.97282000   -0.01797500
 C                 -7.51889200    2.15133100   -0.61667000
 C                 -6.60885400    3.11360100   -1.04527400
 C                  1.50930000    2.52766500    0.25895100
 C                 -1.52142300   -2.50134700    0.60306800
 C                 -1.94564000   -2.239700   -0.69029500
 C                 -2.58763700   -3.97332800   -0.99619500
 C                 -2.80354400   -4.91824800    0.01347500
 C                 -2.35689700   -4.66035000    1.31245800
 C                 -1.71625600   -3.46598100    1.59263600
 C                  1.65937400    3.54037100    1.20121300
 C                  2.29520100    4.73344100    0.86785800
 C                  2.80118000    4.89561900   -0.42641900
 C                  2.67997200    3.85914900   -1.36223400
 C                  2.03087300    2.68639400   -1.02144400
 H                  2.10145100   -4.43524400   -1.23570000
 H                  4.50545300   -4.87176700   -1.64245400
 H                  6.870500   -4.13042600   -1.46295000
 H                  8.55137800   -2.42748400   -0.80022600
 H                  7.81765400   -0.28961100    0.20452800
 H                  5.97920200    1.19845300    0.968400
 H                  3.60174000    1.60560100    1.317200
 H                 -1.79596000   -2.04034600   -1.423000
 H                 -2.91805700   -4.15829000   -2.00965800
 H                 -1.36013600   -3.23691200    2.58598000
 H                 -2.52383500   -5.41147400    2.07601200
 H                  1.27204500    3.39821700    2.20223200
 H                  2.39055600    5.51357000    1.60974900
 H                  3.10276100    4.009900   -2.34854600
 H                  1.92534500    1.89637400   -1.75630100
 H                 -2.19359000    4.43095200   -1.39330100
 H                 -4.61643000    4.80916900   -1.76141200
 H                 -6.96222600    4.02751100   -1.50996200
 H                 -8.58121300    2.32113800   -0.74803500
 H                 -7.79380700    0.23097600    0.31844500
 H                 -5.91016100   -1.18183800    1.16298500
 H                 -3.53241300   -1.521900    1.42527800
 O                 -0.53239000   -1.21840300    2.36180800
 O                  1.10278100    0.81051100    1.92053500
 O                 -3.43524500   -6.11592600   -0.16488200
 C                 -3.91640000   -6.43645400   -1.46758100
 H                 -3.10084000   -6.48693600   -2.19705200
 H                 -4.38095300   -7.41769000   -1.38217300
 H                 -4.66407600   -5.71270400   -1.80969700
 O                  3.43097400    6.01342400   -0.87601100
 C                  3.60200000    7.10827900    0.02502700
 H                  4.20817600    6.82134800    0.89039400
 H                  4.12199700    7.87983000   -0.53942000
 H                  2.63750700    7.49704200    0.36726800
