77
0 1
 C                 -5.40903000   -5.56012800   -0.69080100
 C                 -4.10372700   -5.95127700   -1.01634500
 C                 -3.01147700   -5.11155200   -0.75197500
 C                 -3.24699500   -3.84132400   -0.15259000
 C                 -4.56488000   -3.45732200    0.20082200
 C                 -5.63925400   -4.34016000   -0.08180300
 C                 -2.16984000   -2.95425400    0.10223600
 C                 -2.39921100   -1.68978000    0.69850000
 C                 -3.70229100   -1.35104600    1.08480200
 C                 -4.75824000   -2.20737600    0.83052300
 C                 -1.66431900   -5.49361900   -1.03429600
 C                 -0.61041900   -4.65677500   -0.75010900
 C                 -0.83178100   -3.37498300   -0.18331000
 N                  0.24245800   -2.59236900    0.11585600
 C                  0.11252900   -1.40367700    0.65576400
 C                 -1.23758500   -0.79864400    0.89908300
 C                  1.35709200   -0.62198200    1.10047600
 C                  1.23955800    0.83724000    0.66707000
 C                 -0.02497400    1.42296600    0.49675600
 C                 -1.31437800    0.71624700    0.89630100
 C                  2.35738000    1.69129500    0.59068300
 C                  2.15371800    3.00187300    0.07737000
 C                  0.83162900    3.42922000   -0.21037100
 N                 -0.23141500    2.66715800    0.07134800
 C                  3.24897400    3.87683600   -0.16200500
 C                  3.02295700    5.15025000   -0.75928400
 C                  1.67171400    5.54814900   -1.04825400
 C                  0.62198900    4.73212800   -0.77482400
 C                  3.69440400    1.34777700    1.01850600
 C                  4.73551600    2.19808900    0.83224200
 C                  4.56772200    3.47589200    0.19363000
 C                  5.63647100    4.33730500   -0.07737200
 C                  5.41348600    5.57078300   -0.68873600
 C                  4.12503500    5.97827700   -1.02050300
 C                 -2.57293700    1.40758700    0.46085600
 C                  2.58851300   -1.37501600    0.52610200
 C                  3.25350700   -2.21750100    1.41576600
 C                  4.39234700   -2.91022300    1.03210900
 C                  4.87918800   -2.76505600   -0.26444400
 C                  4.20885800   -1.94617400   -1.17859400
 C                  3.05981500   -1.26526500   -0.78365800
 C                 -3.07878200    1.27379100   -0.82865100
 C                 -4.23926900    1.94664500   -1.19199500
 C                 -4.88539100    2.76179000   -0.26131100
 C                 -4.38149000    2.89971200    1.03084800
 C                 -3.22723900    2.21710000    1.38954800
 H                 -4.65214600    1.82755600   -2.18685900
 H                 -2.58410100    0.63168300   -1.54913900
 H                 -2.81561000    2.32747400    2.38441700
 H                 -4.87708700    3.55224300    1.73666000
 H                  0.41585600   -4.97072600   -0.88779500
 H                 -1.47283800   -6.48856900   -1.41855400
 H                 -3.92872500   -6.91497200   -1.47919700
 H                 -6.24061900   -6.20836000   -0.93390500
 H                 -6.64926700   -4.03296000    0.16414200
 H                 -5.76242300   -1.90982900    1.11249300
 H                 -3.87852100   -0.43026500    1.61967900
 H                  3.85825300    0.40321100    1.51199000
 H                  5.72639800    1.91732400    1.17369400
 H                  6.64572300    4.02202800    0.16618800
 H                  6.25759100    6.20900100   -0.92409900
 H                  3.96652700    6.94454000   -1.48696200
 H                  1.50466100    6.55356900   -1.42223300
 H                 -0.40079300    5.06123100   -0.91690800
 H                  4.59161500   -1.82821800   -2.18571300
 H                  2.55611600   -0.61147400   -1.48831300
 H                  2.85508000   -2.29285600    2.41672000
 H                  4.89967900   -3.57032900    1.72399800
 O                 -1.35635500    0.25239100    2.21675200
 O                  1.28547300   -0.73298300    2.45309100
 C                  6.16206900   -3.43765700   -0.63901500
 C                 -6.16983400    3.44100300   -0.63138800
 F                 -6.41959200    4.52773700    0.13409900
 F                 -7.23715100    2.61338500   -0.48152800
 F                 -6.18225900    3.85026200   -1.92065200
 F                  6.41920500   -4.52793700    0.12431200
 F                  6.17869300   -3.84701700   -1.92930600
 F                  7.23426600   -2.61258800   -0.48748400

