77
0 1
 C                 -5.39991900   -5.55132500   -0.69958600
 C                 -4.09038100   -5.93706000   -1.01073400
 C                 -3.00573200   -5.09164900   -0.73870000
 C                 -3.25215600   -3.81858800   -0.15156000
 C                 -4.57669300   -3.44070900    0.18896300
 C                 -5.64244600   -4.32794900   -0.09962400
 C                 -2.17725200   -2.93340600    0.12764600
 C                 -2.41140600   -1.69211700    0.74887400
 C                 -3.71941300   -1.35619800    1.13171600
 C                 -4.77600600   -2.19744400    0.83755900
 C                 -1.65211000   -5.46938100   -1.00550700
 C                 -0.60709700   -4.63224500   -0.71302600
 C                 -0.83222400   -3.35115900   -0.13973300
 N                  0.24539100   -2.58346400    0.15735300
 C                  0.10516800   -1.40582200    0.70955700
 C                 -1.24173800   -0.80602000    1.02288400
 C                  1.35133600   -0.62483500    1.11645900
 C                  1.24407200    0.84520400    0.68582100
 C                 -0.01874000    1.43098800    0.48213300
 C                 -1.30440500    0.71506300    0.80542100
 C                  2.35987900    1.70047400    0.58786600
 C                  2.15840400    3.01368500    0.07448900
 C                  0.83794400    3.44989000   -0.20791700
 N                 -0.22254200    2.67770700    0.05076500
 C                  3.25391900    3.88683400   -0.16163900
 C                  3.02960300    5.16630200   -0.74762800
 C                  1.67985400    5.57411100   -1.02856600
 C                  0.62799300    4.75997800   -0.75682500
 C                  3.69414700    1.35315500    1.01161300
 C                  4.73792200    2.20021600    0.82210300
 C                  4.57206300    3.47667000    0.18482500
 C                  5.64413000    4.33423900   -0.08835200
 C                  5.42426900    5.56867000   -0.69647700
 C                  4.13536600    5.98566600   -1.01780000
 C                 -2.56892000    1.40919300    0.42704800
 C                  2.59294700   -1.36854000    0.53792700
 C                  3.25866700   -2.22201700    1.41652700
 C                  4.39447500   -2.91480300    1.02463700
 C                  4.87882400   -2.76360400   -0.27240300
 C                  4.20718300   -1.93552000   -1.17745800
 C                  3.06268500   -1.24924800   -0.77286400
 C                 -3.09212100    1.27432500   -0.85578400
 C                 -4.25810100    1.94376500   -1.20385600
 C                 -4.89145300    2.75865900   -0.26524800
 C                 -4.37360500    2.89613200    1.02247600
 C                 -3.21222500    2.21574500    1.36820800
 H                 -4.66921800    1.84130100   -2.19878700
 H                 -2.59013200    0.64290900   -1.57839300
 H                 -2.80103400    2.31132300    2.36428200
 H                 -4.86936900    3.53421300    1.74145100
 H                  0.41505700   -4.92754200   -0.89149000
 H                 -1.46223500   -6.44571400   -1.43138300
 H                 -3.90710800   -6.90421700   -1.46459000
 H                 -6.22240900   -6.21750800   -0.92103200
 H                 -6.65237200   -4.03713900    0.16190200
 H                 -5.78031800   -1.91004000    1.12223100
 H                 -3.90093300   -0.43193700    1.65806400
 H                  3.85615500    0.41194000    1.51178200
 H                  5.73046600    1.91781900    1.15678700
 H                  6.64942300    4.02730000    0.17398500
 H                  6.26582000    6.21429400   -0.91478300
 H                  3.97674300    6.95446300   -1.47838500
 H                  1.51924100    6.55887500   -1.44778000
 H                 -0.39102600    5.06621500   -0.93986200
 H                  4.57880800   -1.82640500   -2.18911200
 H                  2.54971000   -0.60444900   -1.47642200
 H                  2.86842200   -2.30898100    2.42014900
 H                  4.90426700   -3.56712300    1.72105000
 O                 -1.34479800    0.04301300    2.08032400
 O                  1.24031600   -0.81010900    2.47057900
 C                  6.16205000   -3.43570100   -0.65142200
 C                 -6.17521000    3.44006200   -0.63439100
 F                 -6.42246100    4.52765700    0.12883800
 F                 -7.24222000    2.61263000   -0.48624800
 F                 -6.18529900    3.84753200   -1.92486700
 F                  6.41966100   -4.52693000    0.10978600
 F                  6.18014100   -3.84233100   -1.94254600
 F                  7.23334200   -2.60994000   -0.49768700

