77
0 1
 C                 -5.38443760   -5.63877903   -0.63569725
 C                 -4.09719060   -6.01359403   -1.01949925
 C                 -3.00598360   -5.15250703   -0.81853425
 C                 -3.23575760   -3.87968503   -0.22339825
 C                 -4.54941560   -3.50381103    0.17008575
 C                 -5.61213760   -4.40224203   -0.04333425
 C                 -2.15369760   -2.98445703   -0.01813525
 C                 -2.36947160   -1.68523403    0.52516875
 C                 -3.69389560   -1.35714603    0.96075175
 C                 -4.73117560   -2.23064303    0.78966375
 C                 -1.66931660   -5.51038203   -1.18517225
 C                 -0.62231360   -4.66245503   -0.95869425
 C                 -0.83334160   -3.38384903   -0.36266325
 N                  0.24078840   -2.60845103   -0.08729725
 C                  0.03880040   -1.40601803    0.41851675
 C                 -1.24132660   -0.83057303    0.60639475
 C                  1.25483440   -0.64389503    1.01385275
 C                  1.24134640    0.83059797    0.60646575
 C                 -0.03875260    1.40606497    0.41856075
 C                 -1.25485060    0.64392897    1.01368375
 C                  2.36949040    1.68522797    0.52511375
 C                  2.15372940    2.98449897   -0.01809625
 C                  0.83336340    3.38395897   -0.36248825
 N                 -0.24074560    2.60856197   -0.08714225
 C                  3.23580240    3.87971597   -0.22338225
 C                  3.00602040    5.15258997   -0.81841425
 C                  1.66932540    5.51053397   -1.18492025
 C                  0.62232640    4.66262897   -0.95842125
 C                  3.69396440    1.35709197    0.96057975
 C                  4.73124540    2.23056097    0.78946975
 C                  4.54948340    3.50378297    0.16997575
 C                  5.61220940    4.40218497   -0.04347125
 C                  5.38449740    5.63877197   -0.63573825
 C                  4.09723540    6.01365397   -1.01941125
 C                 -2.53470460    1.38988397    0.60473875
 C                  2.53467740   -1.38990203    0.60486275
 C                  3.20655140   -2.17335303    1.53825175
 C                  4.36279440   -2.85961303    1.17618375
 C                  4.84085440   -2.76460103   -0.12873025
 C                  4.16292440   -1.98950803   -1.07330325
 C                  3.01079540   -1.30983503   -0.70485525
 C                 -3.01083460    1.30985297   -0.70497425
 C                 -4.16297460    1.98952897   -1.07338625
 C                 -4.84090760    2.76456997   -0.12877625
 C                 -4.36284760    2.85952797    1.17614275
 C                 -3.20658860    2.17327697    1.53817275
 H                 -4.53369660    1.92533797   -2.08859325
 H                 -2.48390260    0.70934797   -1.43697525
 H                 -2.82550160    2.23369697    2.54940175
 H                 -4.88573560    3.46855997    1.90244375
 H                  0.39378740   -4.93633403   -1.21433325
 H                 -1.49819860   -6.47943003   -1.64038025
 H                 -3.92844060   -6.98220603   -1.47626325
 H                 -6.21169060   -6.31907903   -0.79721425
 H                 -6.61323460   -4.11908903    0.26134575
 H                 -5.72170260   -1.96019103    1.13809275
 H                 -3.87097260   -0.41870503    1.46038775
 H                  3.87106740    0.41861097    1.46013175
 H                  5.72179140    1.96006197    1.13781075
 H                  6.61332240    4.11898397    0.26111075
 H                  6.21176040    6.31905497   -0.79727825
 H                  3.92847940    6.98229997   -1.47610125
 H                  1.49820540    6.47962297   -1.64004225
 H                 -0.39378860    4.93654797   -1.21396425
 H                  4.53364040   -1.92528303   -2.08851025
 H                  2.48386240   -0.70930303   -1.43683225
 H                  2.82547240   -2.23379603    2.54948075
 H                  4.88567540   -3.46868503    1.90245575
 O                 -1.07631060    0.59049997    2.37250375
 O                  1.07619340   -0.59091103    2.37266875
 C                  6.12050340   -3.44416003   -0.51333925
 C                 -6.12055360    3.44415997   -0.51334925
 F                 -6.38595360    4.52532097    0.25485475
 F                 -7.19146660    2.61531597   -0.39061925
 F                 -6.11372660    3.86363597   -1.80093525
 F                  6.38596140   -4.52531603    0.25485975
 F                  6.11365740   -3.86363403   -1.80092625
 F                  7.19139540   -2.61528203   -0.39063925

