77
0 1
 C                 -5.38435900   -5.65344000   -0.63465700
 C                 -4.10197400   -6.03359800   -1.02049500
 C                 -3.00898800   -5.17552000   -0.82584800
 C                 -3.23548900   -3.89730600   -0.24067700
 C                 -4.54792200   -3.51976200    0.15984100
 C                 -5.60861100   -4.41274700   -0.04263900
 C                 -2.15121300   -2.99513900   -0.06125200
 C                 -2.37283000   -1.67920400    0.44254400
 C                 -3.69687200   -1.35760500    0.91029800
 C                 -4.72381700   -2.23855400    0.77768500
 C                 -1.66990700   -5.53914000   -1.19414800
 C                 -0.62348600   -4.69888600   -0.97420300
 C                 -0.82818900   -3.40674700   -0.38897300
 N                  0.24581800   -2.64039600   -0.12033000
 C                  0.01947500   -1.40865300    0.30863200
 C                 -1.24340200   -0.83656900    0.47416700
 C                  1.15431200   -0.58940300    0.93080600
 C                  1.24340800    0.83658900    0.47421900
 C                 -0.01946800    1.40869100    0.30871800
 C                 -1.15432600    0.58940600    0.93080500
 C                  2.37285100    1.67920500    0.44256800
 C                  2.15123500    2.99516500   -0.06116600
 C                  0.82820100    3.40681700   -0.38879100
 N                 -0.24580700    2.64046200   -0.12016300
 C                  3.23552100    3.89731500   -0.24063200
 C                  3.00900900    5.17556700   -0.82571500
 C                  1.66990900    5.53924400   -1.19388700
 C                  0.62348700    4.69899900   -0.97392300
 C                  3.69692200    1.35756100    0.91021600
 C                  4.72388500    2.23847700    0.77753600
 C                  4.54797900    3.51971400    0.15975400
 C                  5.60867700    4.41267700   -0.04277300
 C                  5.38440900    5.65341100   -0.63470000
 C                  4.10200200    6.03362800   -1.02040400
 C                 -2.46417600    1.36695600    0.71853600
 C                  2.46414900   -1.36696900    0.71855600
 C                  3.15596700   -2.16060700    1.62678700
 C                  4.32091400   -2.83997700    1.23700500
 C                  4.79779100   -2.74713100   -0.06918800
 C                  4.09576200   -1.97296000   -0.99750400
 C                  2.94786100   -1.30259800   -0.60602000
 C                 -2.94786800    1.30260200   -0.60604800
 C                 -4.09577300    1.97296100   -0.99753800
 C                 -4.79782600    2.74710200   -0.06921700
 C                 -4.32097500    2.83991900    1.23698700
 C                 -3.15602500    2.16055800    1.62677300
 H                 -4.44084200    1.90138600   -2.02117100
 H                 -2.41494200    0.71492200   -1.34266800
 H                 -2.80361000    2.25340200    2.64607500
 H                 -4.84857000    3.44884800    1.96004700
 H                  0.39237900   -4.97681500   -1.22738400
 H                 -1.50474300   -6.51257700   -1.64257600
 H                 -3.93710900   -7.00374400   -1.47584800
 H                 -6.21491300   -6.33138400   -0.79193900
 H                 -6.60829500   -4.12832100    0.26636900
 H                 -5.70878900   -1.97436800    1.14709700
 H                 -3.87773100   -0.41294900    1.39524300
 H                  3.87779500    0.41288600    1.39512200
 H                  5.70888000    1.97424700    1.14685500
 H                  6.60838000    4.12820500    0.26613300
 H                  6.21496900    6.33134100   -0.79201400
 H                  3.93712400    7.00380500   -1.47568600
 H                  1.50473400    6.51271400   -1.64224000
 H                 -0.39239000    4.97696400   -1.22701900
 H                  4.44085200   -1.90136600   -2.02112900
 H                  2.41495500   -0.71489400   -1.34263500
 H                  2.80353200   -2.25346800    2.64608000
 H                  4.84848900   -3.44893100    1.96005800
 O                 -0.59612400    0.39710200    2.35952900
 O                  0.59606000   -0.39718000    2.35952800
 C                  6.08132200   -3.42611500   -0.48161200
 C                 -6.08135400    3.42610400   -0.48163100
 F                 -6.35967300    4.51243200    0.27309700
 F                 -7.15413300    2.59894400   -0.37207600
 F                 -6.06050400    3.83779300   -1.77247300
 F                  6.35967900   -4.51243000    0.27312000
 F                  6.06045700   -3.83781400   -1.77245100
 F                  7.15408500   -2.59892800   -0.37208600

