80
0 1
 C                  7.48153700   -2.22913800   -0.67325300
 C                  6.52466400   -3.18010600   -1.05174500
 C                  5.16114300   -2.934900   -0.87116500
 C                  4.75074000   -1.70135100   -0.29327400
 C                  5.71853800   -0.73927000    0.098900
 C                  7.09042100   -1.02598100   -0.11324500
 C                  3.37481000   -1.44907100   -0.05397400
 C                  2.96281000   -0.25354400    0.55348600
 C                  3.93153100    0.67018200    0.98710100
 C                  5.27105400    0.43787500    0.75603000
 C                  4.15780600   -3.90136000   -1.21279800
 C                  2.83672900   -3.68694500   -0.93663200
 C                  2.40305800   -2.47691700   -0.31996200
 N                  1.10130300   -2.36921100    0.01118700
 C                  0.63699500   -1.26710100    0.57147200
 C                  1.50997600   -0.07187100    0.82036700
 C                 -0.80024300   -1.22153600    1.04315500
 C                 -1.48864900    0.09384400    0.58615500
 C                 -0.68610600    1.22011000    0.27169700
 C                  0.79539500    1.28130000    0.59997500
 C                 -2.89362900    0.27283000    0.47979000
 C                 -3.38730300    1.48595200   -0.09340300
 C                 -2.46150200    2.48694000   -0.48920500
 N                 -1.14492200    2.35000200   -0.26873600
 C                 -4.78185700    1.71315200   -0.27294000
 C                 -5.24297400    2.91864700   -0.879200
 C                 -4.27619000    3.89563200   -1.29347100
 C                 -2.94415200    3.69242200   -1.10399400
 C                 -3.87837800   -0.67413500    0.93875000
 C                 -5.21234200   -0.44723900    0.78988500
 C                 -5.71908700    0.73616900    0.16163300
 C                 -7.09076300    0.97101300   -0.02025700
 C                 -7.53382900    2.14575800   -0.62110800
 C                 -6.62361100    3.11086700   -1.04588700
 C                  1.52141100    2.51527500    0.20131800
 C                 -1.53412800   -2.50215600    0.62038700
 C                 -1.96624900   -2.75431700   -0.673900
 C                 -2.60681800   -3.94904300   -1.00653500
 C                 -2.816800   -4.91809300   -0.01669800
 C                 -2.36615500   -4.67937600    1.28555900
 C                 -1.72497500   -3.48951600    1.59176100
 C                  1.65874800    3.52814600    1.14733500
 C                  2.30417400    4.72112300    0.83375600
 C                  2.81260500    4.90491200   -0.45692000
 C                  2.66480100    3.88981200   -1.41290900
 C                  2.02734600    2.70471200   -1.08125100
 H                  2.08305800   -4.43661800   -1.14050800
 H                  4.46906400   -4.82867300   -1.68067100
 H                  6.83791600   -4.12339600   -1.48415800
 H                  8.53218600   -2.44797100   -0.81421300
 H                  7.83517500   -0.29564600    0.18120000
 H                  6.00631100    1.13563300    1.14236500
 H                  3.61830000    1.53809900    1.54653200
 H                 -1.80703200   -2.00304600   -1.44047800
 H                 -2.93743800   -4.09867200   -2.02471700
 H                 -1.35844500   -3.30970800    2.59329900
 H                 -2.52229400   -5.44741800    2.03508800
 H                  1.24035400    3.39257200    2.137500
 H                  2.39082700    5.49078400    1.584200
 H                  3.02575500    4.06453600   -2.41862500
 H                  1.91369100    1.92503400   -1.82589500
 H                 -2.21315500    4.43413800   -1.40206200
 H                 -4.63403000    4.81036500   -1.75343800
 H                 -6.98151300    4.02434200   -1.50794100
 H                 -8.59625200    2.31136400   -0.75827600
 H                 -7.80605800    0.22712700    0.31299800
 H                 -5.92674400   -1.173400    1.16270200
 H                 -3.55109400   -1.57679200    1.42762800
 O                 -0.46427000   -1.25596800    2.368600
 O                  1.14933700    0.815500    1.87251100
 O                 -3.43947200   -6.11921800   -0.21224900
 C                 -3.915400   -6.42085800   -1.52118700
 H                 -3.09672600   -6.46688500   -2.24539000
 H                 -4.39529300   -7.39635800   -1.45397600
 H                 -4.65101900   -5.68034500   -1.85942900
 O                  3.45400100    6.02869600   -0.881700
 C                  3.60644800    7.11535300    0.03365400
 H                  4.21453500    6.82788000    0.89762300
 H                  4.11623900    7.90056600   -0.52144600
 H                  2.63547800    7.48572200    0.37832500
