80
0 1
 C                  7.48286200   -2.19849500   -0.69727300
 C                  6.53373500   -3.15308700   -1.08180300
 C                  5.16635000   -2.92633000   -0.87685700
 C                  4.74399000   -1.70173100   -0.28581400
 C                  5.71082400   -0.74605200    0.12278000
 C                  7.08140300   -1.01893500   -0.09448200
 C                  3.36597300   -1.45962800   -0.034300
 C                  2.95036100   -0.26391800    0.551500
 C                  3.92250100    0.66938100    0.98785100
 C                  5.26152200    0.43281900    0.76983900
 C                  4.17158800   -3.90425600   -1.20115300
 C                  2.84982100   -3.70368600   -0.92103800
 C                  2.40084000   -2.49255000   -0.29974300
 N                  1.104600   -2.38348400    0.05262400
 C                  0.64741400   -1.27000600    0.58500300
 C                  1.50645800   -0.07420000    0.79391100
 C                 -0.80484100   -1.20257500    1.05389200
 C                 -1.49352100    0.10048100    0.58962600
 C                 -0.69658100    1.21700700    0.27263300
 C                  0.926100    1.26958300    0.58544900
 C                 -2.89402700    0.27240900    0.49010700
 C                 -3.39050800    1.48125500   -0.08602200
 C                 -2.46530300    2.47561700   -0.48809600
 N                 -1.15189800    2.34736200   -0.27098200
 C                 -4.78434700    1.71006700   -0.26736100
 C                 -5.23896700    2.91754600   -0.87632600
 C                 -4.26620700    3.89367900   -1.29068800
 C                 -2.93884600    3.68054100   -1.10405900
 C                 -3.88057300   -0.66984300    0.96342900
 C                 -5.21222700   -0.45348000    0.79637200
 C                 -5.72330000    0.73055000    0.16151700
 C                 -7.09206800    0.96937200   -0.02201000
 C                 -7.53094100    2.14780700   -0.62520100
 C                 -6.61767100    3.10984900   -1.04913000
 C                  1.51093600    2.51732200    0.18734400
 C                 -1.53999000   -2.49399200    0.61517300
 C                 -1.98233900   -2.74103800   -0.68221700
 C                 -2.62239400   -3.94024200   -1.00460600
 C                 -2.82019000   -4.91599100   -0.01907400
 C                 -2.36712000   -4.697800    1.28307300
 C                 -1.73487100   -3.47978300    1.58240000
 C                  1.68752100    3.51942400    1.14137000
 C                  2.30706600    4.72254800    0.815400
 C                  2.80756600    4.90869900   -0.408900
 C                  2.67472500    3.88644900   -1.42860700
 C                  2.01260800    2.71078900   -1.10395500
 H                  2.136400   -4.49118600   -1.133300
 H                  4.51355500   -4.84298700   -1.62659900
 H                  6.87475300   -4.06369000   -1.56564300
 H                  8.53708100   -2.36245900   -0.89527400
 H                  7.81417200   -0.29355400    0.24228800
 H                  5.99256800    1.16613400    1.08188800
 H                  3.59533400    1.59869200    1.42434800
 H                 -1.85404400   -1.99694900   -1.46267200
 H                 -2.960500   -4.10326700   -2.01315800
 H                 -1.38546100   -3.24032800    2.5400
 H                 -2.51948000   -5.43731500    2.04116900
 H                  1.385300    3.34061800    2.17264200
 H                  2.41017500    5.49470100    1.56411300
 H                  3.13879500    4.02679300   -2.40105600
 H                  1.89529800    1.92918900   -1.84705300
 H                 -2.17882700    4.39627800   -1.39455300
 H                 -4.60456100    4.81505400   -1.75023400
 H                 -6.95739200    4.02371100   -1.52411100
 H                 -8.59175800    2.31979200   -0.76684500
 H                 -7.80812400    0.22728300    0.31370000
 H                 -5.91897200   -1.19113200    1.16287500
 H                 -3.55020700   -1.54524300    1.50231600
 O                 -0.41855800   -1.25431200    2.38137500
 O                  1.14154400    0.78070800    1.88915900
 O                 -3.44374300   -6.11276200   -0.23218100
 C                 -3.90713200   -6.38691100   -1.55524200
 H                 -3.07438700   -6.39469600   -2.27060300
 H                 -4.37059100   -7.36933900   -1.52062200
 H                 -4.64291300   -5.64195300   -1.88223000
 O                  3.45303800    6.02907600   -0.89400400
 C                  3.60616300    7.10492900    0.03480100
 H                  4.20087300    6.79042400    0.89858600
 H                  4.13014900    7.88924700   -0.50660400
 H                  2.63296900    7.47509200    0.37167600
