80
0 1
 C                  7.48728900   -2.23054300   -0.65571800
 C                  6.53639200   -3.18709400   -1.02982700
 C                  5.16737600   -2.95017300   -0.85009500
 C                  4.74765600   -1.71431900   -0.28156900
 C                  5.71324000   -0.74592900    0.090600
 C                  7.08566000   -1.02745200   -0.10006000
 C                  3.36900500   -1.45491500   -0.05569500
 C                  2.95286200   -0.24951700    0.54099900
 C                  3.92208800    0.69339200    0.92741800
 C                  5.26127200    0.45831300    0.69512600
 C                  4.165100   -3.91348400   -1.20331300
 C                  2.839200   -3.67973400   -0.97186800
 C                  2.40019500   -2.46851000   -0.36009800
 N                  1.086300   -2.34395700   -0.05387800
 C                  0.63805800   -1.25596000    0.52741600
 C                  1.50007800   -0.06297400    0.81334500
 C                 -0.80290000   -1.20180500    1.03262800
 C                 -1.49168500    0.09836400    0.55666500
 C                 -0.69805000    1.22745700    0.27064800
 C                  0.351900    1.27852200    0.59819300
 C                 -2.89080800    0.27190400    0.46072100
 C                 -3.38471300    1.48901300   -0.09962100
 C                 -2.46223500    2.49500200   -0.48599600
 N                 -1.15082000    2.36827600   -0.25257500
 C                 -4.784100    1.71386000   -0.27689800
 C                 -5.23602200    2.92092200   -0.88234900
 C                 -4.26987100    3.89978200   -1.29818600
 C                 -2.94076100    3.69950300   -1.10416500
 C                 -3.87183400   -0.6100    0.92797300
 C                 -5.20395000   -0.45155900    0.78658000
 C                 -5.71324800    0.73429500    0.15844200
 C                 -7.08239800    0.97209000   -0.01874700
 C                 -7.52417100    2.15008400   -0.61759500
 C                 -6.61564600    3.11374500   -1.04585400
 C                  1.50762000    2.52171100    0.24223700
 C                 -1.52708400   -2.498000    0.61016600
 C                 -1.95386700   -2.76728500   -0.68575600
 C                 -2.59362900   -3.96878200   -1.00039400
 C                 -2.80970300   -4.92227300    0.00270300
 C                 -2.36235200   -4.66643200    1.30220800
 C                 -1.72228800   -3.47246200    1.59097300
 C                  1.65518500    3.53532300    1.18747100
 C                  2.29962300    4.72748000    0.86051400
 C                  2.80835600    4.90036500   -0.43270800
 C                  2.67997600    3.86984500   -1.37536900
 C                  2.03083200    2.69558500   -1.03870500
 H                  2.08842000   -4.41996100   -1.21607600
 H                  4.48528100   -4.85189100   -1.64480500
 H                  6.85963400   -4.12817300   -1.46059500
 H                  8.54084600   -2.43664600   -0.79842500
 H                  7.82205200   -0.29020700    0.19875400
 H                  5.99335700    1.19921800    0.99354200
 H                  3.61224700    1.60606700    1.41321100
 H                 -1.79457400   -2.03440300   -1.46949600
 H                 -2.916900   -4.14461100   -2.01684500
 H                 -1.36471900   -3.26410300    2.58990000
 H                 -2.52637800   -5.41653000    2.06758800
 H                  1.25938900    3.40121000    2.18747400
 H                  2.39075800    5.50402500    1.60727300
 H                  3.09040600    4.01838700   -2.36581300
 H                  1.92760500    1.90246600   -1.76959400
 H                 -2.20327200    4.43713600   -1.39729500
 H                 -4.62702800    4.81260400   -1.76259100
 H                 -6.97084500    4.02761000   -1.509300
 H                 -8.58666800    2.31932400   -0.74914400
 H                 -7.79847800    0.23016900    0.31720100
 H                 -5.91580000   -1.17802900    1.16405200
 H                 -3.53862400   -1.57676200    1.41973000
 O                 -0.48460800   -1.21591400    2.36571700
 O                  1.15423000    0.71975100    1.86368200
 O                 -3.432000   -6.12138600   -0.152900
 C                 -3.92053100   -6.44000100   -1.48011400
 H                 -3.10329500   -6.48808000   -2.20767900
 H                 -4.38606000   -7.42004900   -1.39451800
 H                 -4.66525500   -5.71172700   -1.81866400
 O                  3.43943000    6.02002500   -0.87429000
 C                  3.60460400    7.11436400    0.02959900
 H                  4.21026300    6.82698300    0.89486300
 H                  4.12280800    7.88662400   -0.53506300
 H                  2.63755200    7.49811500    0.369300
