77
0 1
 C                  4.71025200    6.15588200   -0.89917800
 C                  3.35863200    6.496800   -0.973400
 C                  2.37004800    5.52116900   -0.69425800
 C                  2.201400    4.20418700   -0.33123000
 C                  4.15567900    3.888100   -0.24553400
 C                  5.10978200    4.87370200   -0.53309800
 C                  1.79515000    3.20856100   -0.04947200
 C                  2.17461000    1.87924600    0.31744300
 C                  3.58547900    1.63163600    0.48148700
 C                  4.51712700    2.57553700    0.18617600
 C                  0.97009700    5.82650200   -0.74986300
 C                  0.03318400    4.88140200   -0.46733400
 C                  0.41868400    3.54619600   -0.11959800
 N                 -0.54719300    2.65322500    0.16204900
 C                 -0.184600    1.41473000    0.44420900
 C                  1.12764000    0.94743600    0.49551600
 C                 -1.28182500    0.44905700    0.98260200
 C                 -1.17188100   -0.98324000    0.43367500
 C                  0.14591900   -1.45159900    0.45944900
 C                  1.22904100   -0.48910900    1.01359600
 C                 -2.20145800   -1.92404900    0.19566300
 C                 -1.797000   -3.27396200   -0.07063900
 C                 -0.42045900   -3.61240300   -0.02351200
 N                  0.52535500   -2.70053200    0.25645200
 C                 -2.74956100   -4.29284600   -0.36396400
 C                 -2.31967500   -5.62838900   -0.614200
 C                 -0.91951000   -5.93041200   -0.55030900
 C                 -0.00889100   -4.96512400   -0.25783200
 C                 -3.62189500   -1.67131400    0.20835100
 C                 -4.52737100   -2.64144200   -0.08891400
 C                 -4.13690800   -3.98348900   -0.39642100
 C                 -5.06352900   -4.99252100   -0.69422400
 C                 -4.63482900   -6.29154400   -0.95522700
 C                 -3.28031800   -6.60804600   -0.91563800
 C                  2.61082000   -1.14863200    0.71660700
 C                 -2.641200    1.15930900    0.71178000
 C                 -3.47427500    1.66762100    1.70318300
 C                 -4.640000    2.30683800    1.36669100
 C                 -5.05595300    2.44101100    0.03529300
 C                 -4.21661900    1.94454900   -0.97181600
 C                 -3.02511500    1.31904900   -0.63603800
 C                  3.03396100   -1.13978700   -0.62554400
 C                  4.25541400   -1.68818600   -0.98945600
 C                  5.074600   -2.27673200   -0.01823200
 C                  4.65706800   -2.29496900    1.30972100
 C                  3.42706500   -1.73099800    1.67583800
 H                  4.57160500   -1.65631900   -2.02454100
 H                  2.40996800   -0.68365300   -1.38414500
 H                  3.11706400   -1.74680200    2.71315700
 H                  5.28419100   -2.74550700    2.06811100
 H                 -1.02686900    5.10127400   -0.50144200
 H                  0.66989400    6.83293900   -1.02006600
 H                  3.05561000    7.48105500   -1.25679300
 H                  5.45583800    6.91083000   -1.11892800
 H                  6.16342400    4.62816700   -0.46207100
 H                  5.56945100    2.34583600    0.31590700
 H                  3.93092600    0.69455200    0.87655800
 H                 -3.99179500   -0.69757400    0.471500
 H                 -5.58549700   -2.40306300   -0.07414700
 H                 -6.12038700   -4.75134200   -0.71637600
 H                 -5.36094400   -7.06238200   -1.184800
 H                 -2.95378700   -7.62343000   -1.11118200
 H                 -0.59978800   -6.94994100   -0.73556900
 H                  1.05150600   -5.17882000   -0.20128400
 H                 -4.49625300    2.03919700   -2.01391600
 H                 -2.38564100    0.93708600   -1.42182100
 H                 -3.19767100    1.56534200    2.74499100
 H                 -5.31521400    2.68923000    2.15274600
 O                  0.88176800   -0.37914200    2.39054800
 O                 -0.95285500    0.31785200    2.36352000
 C                 -6.35479400    3.10308100   -0.35444300
 C                  6.35972500   -2.94434700   -0.44093100
 F                  6.13209400   -4.146600   -1.02974200
 F                  7.19460800   -3.102700    0.59503400
 F                  7.04912700   -2.21147100   -1.34873700
 F                 -7.11951600    2.29413100   -1.13116800
 F                 -7.10943800    3.44949800    0.71006600
 F                 -6.15959500    4.23449600   -1.07866800
