77
0 1
 C                 -5.40685500   -5.57145700   -0.67741300
 C                 -4.10949700   -5.96056100   -1.02159800
 C                 -3.01285900   -5.12179200   -0.76304200
 C                 -3.24508600   -3.85576500   -0.15542800
 C                 -4.56210400   -3.46664200    0.20359000
 C                 -5.63423700   -4.34811700   -0.06532300
 C                 -2.16109200   -2.97715500    0.09473100
 C                 -2.37953100   -1.69161600    0.65258800
 C                 -3.69613900   -1.34827400    1.05501700
 C                 -4.74653000   -2.20713900    0.83611800
 C                 -1.66996200   -5.49901300   -1.07235700
 C                 -0.61502200   -4.66784800   -0.79129600
 C                 -0.83249000   -3.39289500   -0.20754100
 N                  0.24427800   -2.61711900    0.08739400
 C                  0.07957600   -1.41184600    0.57904200
 C                 -1.23787600   -0.82144200    0.74998500
 C                  1.33868600   -0.65086500    1.05855800
 C                  1.24031700    0.82760000    0.71320100
 C                 -0.05300900    1.41693300    0.53357800
 C                 -1.33199700    0.67416500    0.97616600
 C                  2.36860600    1.69084800    0.61044800
 C                  2.15809000    2.99060000    0.07598300
 C                  0.83299200    3.41352600   -0.21760100
 N                 -0.23524200    2.64147900    0.07053600
 C                  3.24716900    3.86990100   -0.16381900
 C                  3.01867000    5.13956400   -0.76697400
 C                  1.67260600    5.52302200   -1.07716800
 C                  0.61990000    4.69978500   -0.80001700
 C                  3.69510300    1.35020300    1.02855600
 C                  4.73925000    2.20668500    0.83233000
 C                  4.56392400    3.47617100    0.19791100
 C                  5.63390000    4.35009900   -0.06452500
 C                  5.40974500    5.57853100   -0.67659500
 C                  4.11809500    5.97428200   -1.02248400
 C                 -2.57772600    1.39484900    0.48643600
 C                  2.58023300   -1.38844900    0.51988900
 C                  3.24997900   -2.21124400    1.42514500
 C                  4.39297500   -2.90082500    1.04765400
 C                  4.87834700   -2.76630900   -0.25224200
 C                  4.20740200   -1.95646300   -1.17299300
 C                  3.05462200   -1.28045700   -0.78509300
 C                 -3.06741900    1.28146000   -0.81041200
 C                 -4.22303900    1.95857200   -1.18322600
 C                 -4.88172100    2.76576000   -0.25274400
 C                 -4.38603000    2.89635200    1.04417600
 C                 -3.23691000    2.20889200    1.40772700
 H                 -4.61115600    1.85695700   -2.18904300
 H                 -2.55485200    0.64766100   -1.52603100
 H                 -2.84248200    2.29035500    2.41296800
 H                 -4.89175700    3.53679600    1.75515000
 H                  0.40805200   -4.97048600   -0.98202900
 H                 -1.49025500   -6.47539400   -1.50807900
 H                 -3.94178100   -6.92102600   -1.49445700
 H                 -6.24069500   -6.22794800   -0.89450500
 H                 -6.64110300   -4.05052600    0.20532300
 H                 -5.74252600   -1.92267800    1.15597300
 H                 -3.86204700   -0.41635000    1.57167400
 H                  3.85854700    0.41221700    1.53446200
 H                  5.73187000    1.92632200    1.16686700
 H                  6.64026200    4.05070300    0.20737000
 H                  6.24784100    6.23189800   -0.89005400
 H                  3.95542200    6.93637400   -1.49473100
 H                  1.50015700    6.50348000   -1.50827600
 H                 -0.40295200    5.00578500   -0.99016200
 H                  4.58262500   -1.85208900   -2.18353400
 H                  2.53358900   -0.64650600   -1.49446400
 H                  2.86688800   -2.28605500    2.43446500
 H                  4.90576300   -3.54323400    1.75225500
 O                 -1.34526100    0.44141500    2.32615800
 O                  1.32264300   -0.61976400    2.41569600
 C                  6.16155800   -3.44076600   -0.62771200
 C                 -6.16565000    3.44311300   -0.62355900
 F                 -6.41865100    4.53016000    0.14245000
 F                 -7.23573300    2.61674900   -0.47534300
 F                 -6.18063900    3.85476000   -1.91285500
 F                  6.41815600   -4.52973900    0.13638400
 F                  6.17706000   -3.85141100   -1.91765500
 F                  7.23339500   -2.61541600   -0.47899600

