77
0 1
 C                  4.71928100    6.14959900   -0.93290000
 C                  3.36627100    6.47127200   -1.02001400
 C                  2.38036900    5.52399000   -0.70272900
 C                  2.78369700    4.217600   -0.29553800
 C                  4.16721300    3.90713100   -0.19282500
 C                  5.12004800    4.88342000   -0.51683500
 C                  1.80822500    3.22752400    0.01687000
 C                  2.18027000    1.90859000    0.42578100
 C                  3.59270200    1.66247100    0.57156700
 C                  4.52588300    2.60297400    0.26836100
 C                  0.9300    5.82343100   -0.297000
 C                  0.04276400    4.88610600   -0.46310100
 C                  0.43053000    3.55940700   -0.06642300
 N                 -0.52329800    2.66406900    0.22093500
 C                 -0.18164000    1.41691700    0.55230400
 C                  1.15039000    0.95236600    0.64712700
 C                 -1.39978300    0.54206600    0.81996900
 C                 -1.20887500   -0.97296300    0.89541700
 C                  0.22704800   -1.43017200    0.75226300
 C                  1.38067800   -0.506600    1.09579600
 C                 -2.24526200   -1.95476800    0.427000
 C                 -1.81425900   -3.22961400    0.03514900
 C                 -0.41416400   -3.55840900    0.10115500
 N                  0.53769000   -2.66402200    0.40667500
 C                 -2.74861200   -4.23182500   -0.33050600
 C                 -2.30638500   -5.55183100   -0.624200
 C                 -0.90459300   -5.84232900   -0.54884500
 C                  0.00208600   -4.88713800   -0.19379900
 C                 -3.62969900   -1.69313400    0.48111900
 C                 -4.54164800   -2.63368000    0.05502300
 C                 -4.13382900   -3.92687200   -0.35811000
 C                 -5.05566000   -4.94442000   -0.71136400
 C                 -4.61656600   -6.22315500   -0.99680400
 C                 -3.24885700   -6.52860600   -0.95034500
 C                  2.69726200   -1.13679400    0.61349900
 C                 -2.69900100    1.20231500    0.46176200
 C                 -3.48109300    1.68190200    1.51157500
 C                 -4.69703200    2.30515000    1.25570800
 C                 -5.12108900    2.45400700   -0.06180300
 C                 -4.33320000    1.99000700   -1.11919300
 C                 -3.12248800    1.36509600   -0.85690000
 C                  3.09836400   -1.14512000   -0.72299400
 C                  4.30034700   -1.73502400   -1.09498500
 C                  5.11499000   -2.31966800   -0.11803000
 C                  4.71721200   -2.32069800    1.21621000
 C                  3.50910800   -1.73453100    1.57373300
 H                  4.61761300   -1.70896700   -2.13096900
 H                  2.49512500   -0.62359900   -1.46133600
 H                  3.19373700   -1.70222200    2.60860500
 H                  5.35752700   -2.76481900    1.96761900
 H                 -1.01591300    5.11089200   -0.51148900
 H                  0.68031300    6.81956400   -1.08566700
 H                  3.06883700    7.46173900   -1.35057500
 H                  5.46749200    6.89056000   -1.19348400
 H                  6.17460300    4.64671000   -0.42223100
 H                  5.58078000    2.36076100    0.36434300
 H                  3.93501800    0.69711400    0.90432900
 H                 -3.98906600   -0.74807900    0.88967800
 H                 -5.59861700   -2.39396200    0.10189800
 H                 -6.11300900   -4.70717600   -0.73294400
 H                 -5.32870000   -6.99324900   -1.26386800
 H                 -2.91073700   -7.53217000   -1.18111800
 H                 -0.57256600   -6.84851200   -0.640900
 H                  1.05991800   -5.10443600   -0.11915300
 H                 -4.67033400    2.11905600   -2.14192100
 H                 -2.51675900    0.99929800   -1.67871600
 H                 -3.12833700    1.55656200    2.52614100
 H                 -5.30365300    2.67318700    2.07123600
 O                  1.17661000   -0.66296000    2.44125600
 O                 -1.45766600   -0.17185100    2.01511700
 C                 -6.41981100    3.12581500   -0.39033100
 C                  6.40565000   -2.97281000   -0.50504700
 F                  6.20829800   -4.18823400   -1.08136700
 F                  7.22251300   -3.18212400    0.55438100
 F                  7.10913700   -2.23920300   -1.40199800
 F                 -7.21108100    2.33499700   -1.15842900
 F                 -7.138800    3.45942200    0.70280300
 F                 -6.22731900    4.26750800   -1.09911700
