77
0 1
 C                  4.71427600    6.17836200   -0.90924300
 C                  3.36057000    6.49645400   -0.99120400
 C                  2.37618500    5.53871200   -0.70304000
 C                  2.78118900    4.22327100   -0.33461500
 C                  4.16513900    3.91823700   -0.22198800
 C                  5.11708200    4.90624800   -0.51701500
 C                  1.802300    3.21714100   -0.08014700
 C                  2.19325000    1.88584100    0.27274000
 C                  3.59834400    1.64184700    0.44976300
 C                  4.52799400    2.60643900    0.20678900
 C                  0.97593600    5.84065000   -0.76565600
 C                  0.04018200    4.89010900   -0.499300
 C                  0.42679800    3.55063800   -0.16531000
 N                 -0.54050100    2.65316600    0.08957500
 C                 -0.17375200    1.41023300    0.35745500
 C                  1.13784800    0.94819300    0.41816900
 C                 -1.22743500    0.43149800    0.91195800
 C                 -1.17145400   -0.98075700    0.35309700
 C                  0.131300   -1.44346900    0.35855700
 C                  1.18305300   -0.47954400    0.91463000
 C                 -2.20960000   -1.91855100    0.14225700
 C                 -1.80424200   -3.26978700   -0.11268300
 C                 -0.42281700   -3.60762600   -0.08025600
 N                  0.52472600   -2.70049300    0.17203600
 C                 -2.75705900   -4.29697100   -0.37469900
 C                 -2.32604200   -5.63358300   -0.62431600
 C                 -0.92236200   -5.93443300   -0.56737800
 C                 -0.01220100   -4.96682800   -0.30111400
 C                 -3.63352500   -1.67510200    0.19786400
 C                 -4.53815000   -2.65361300   -0.06294900
 C                 -4.14619200   -3.99307900   -0.38583200
 C                 -5.07107600   -5.00134000   -0.68485300
 C                 -4.63940400   -6.29681600   -0.95703500
 C                 -3.28452100   -6.61314500   -0.91699300
 C                  2.55321600   -1.13008800    0.75922700
 C                 -2.58365700    1.12493000    0.74909000
 C                 -3.40122300    1.62098800    1.75266800
 C                 -4.61568800    2.25298800    1.43105600
 C                 -5.00564100    2.39958100    0.10262600
 C                 -4.17501500    1.91510500   -0.91503300
 C                 -2.98479100    1.29198300   -0.59319000
 C                  2.943100   -1.169900   -0.58234000
 C                  4.18745700   -1.73041600   -0.93670300
 C                  5.01055500   -2.28141900    0.05064600
 C                  4.59718300   -2.26144500    1.38166500
 C                  3.36515500   -1.685200    1.73768700
 H                  4.49892200   -1.73987400   -1.97327900
 H                  2.35496200   -0.73186500   -1.35310700
 H                  3.06075600   -1.65846100    2.737900
 H                  5.22681900   -2.68486400    2.154500
 H                 -1.01981400    5.10837400   -0.53843100
 H                  0.67543200    6.84736000   -1.03475300
 H                  3.05588700    7.49493100   -1.28488600
 H                  5.45808400    6.92995900   -1.14613100
 H                  6.17171300    4.67006000   -0.42854300
 H                  5.57937900    2.37552600    0.33579000
 H                  3.94450100    0.67220400    0.75929800
 H                 -4.00359500   -0.69525200    0.43694500
 H                 -5.59841400   -2.42582500   -0.02060300
 H                 -6.12980100   -4.76635800   -0.69400700
 H                 -5.36395100   -7.060800   -1.19298600
 H                 -2.95745500   -7.62805100   -1.11426000
 H                 -0.60561200   -6.95628100   -0.74433400
 H                  1.05009800   -5.17365800   -0.25540900
 H                 -4.46650300    2.02647800   -1.95211400
 H                 -2.35858900    0.91792400   -1.39379500
 H                 -3.10121600    1.51438500    2.78751300
 H                 -5.24516800    2.62243200    2.23037000
 O                  0.63001900   -0.29628100    2.33014500
 O                 -0.73784100    0.29032900    2.35586500
 C                 -6.29542700    3.063500   -0.30412200
 C                  6.30056000   -2.92603800   -0.38857300
 F                  6.08531600   -4.12306900   -0.99505900
 F                  7.15121800   -3.15489400    0.63254300
 F                  6.96749200   -2.17054400   -1.29844900
 F                 -7.05493800    2.26251900   -1.09231300
 F                 -7.06230900    3.42579300    0.74530700
 F                 -6.08075200    4.19276900   -1.03590500
