77
0 1
 C                  4.70327200    6.14646700   -0.915000
 C                  3.35092300    6.46808900   -0.98902000
 C                  2.36914300    5.51064200   -0.69578300
 C                  2.917400    4.19865800   -0.31823200
 C                  4.16324000    3.88302000   -0.23239300
 C                  5.11048900    4.86752300   -0.54537600
 C                  1.80573200    3.20994900   -0.00667400
 C                  2.197900    1.89191600    0.39483700
 C                  3.58941600    1.65288700    0.58521800
 C                  4.52324900    2.58571400    0.26045400
 C                  0.96664400    5.81261500   -0.75673200
 C                  0.03536200    4.87094600   -0.45893500
 C                  0.43087100    3.54885400   -0.07440300
 N                 -0.52538100    2.66638300    0.22796800
 C                 -0.17860000    1.42244200    0.54424300
 C                  1.14651400    0.94483200    0.60766600
 C                 -1.39032300    0.57148500    0.85092100
 C                 -1.20815100   -0.92942900    0.89154100
 C                  0.21919100   -1.41274300    0.72491500
 C                  1.38196900   -0.49241600    1.09172700
 C                 -2.24827800   -1.92715300    0.39958800
 C                 -1.81675500   -3.22121500    0.00958900
 C                 -0.42380400   -3.55505500    0.06993800
 N                  0.51961100   -2.64100900    0.38115200
 C                 -2.74726300   -4.24092000   -0.34567200
 C                 -2.30813300   -5.57156600   -0.61368300
 C                 -0.90723800   -5.85823200   -0.54445800
 C                 -0.00239400   -4.88538900   -0.21946600
 C                 -3.63099500   -1.67316000    0.37193300
 C                 -4.53665300   -2.63357300   -0.04614500
 C                 -4.13289900   -3.94379100   -0.38850700
 C                 -5.05851200   -4.96940000   -0.71043300
 C                 -4.62325100   -6.25705000   -0.96436100
 C                 -3.25565900   -6.55797200   -0.91480600
 C                  2.68326300   -1.15111400    0.58814700
 C                 -2.70112100    1.21737400    0.51948100
 C                 -3.50287600    1.68026500    1.56195500
 C                 -4.71106900    2.31259500    1.28589500
 C                 -5.11368900    2.46007500   -0.03738800
 C                 -4.31854700    1.98570700   -1.08413500
 C                 -3.10836700    1.37296800   -0.80448800
 C                  3.08894900   -1.17987000   -0.74827100
 C                  4.31215000   -1.74253700   -1.09256100
 C                  5.12447600   -2.29872500   -0.09876900
 C                  4.70242300   -2.32064300    1.22624000
 C                  3.48221500   -1.74986400    1.55797800
 H                  4.63522800   -1.76309200   -2.12700800
 H                  2.45800100   -0.75611500   -1.52122300
 H                  3.12311500   -1.73445000    2.57636100
 H                  5.32529600   -2.540300    1.98557400
 H                 -1.02656100    5.08037900   -0.50061300
 H                  0.66502700    6.81297300   -1.04745400
 H                  3.043000    7.46760700   -1.27684700
 H                  5.44546700    6.90019500   -1.15362000
 H                  6.16645900    4.62938000   -0.48218900
 H                  5.571000    2.38151000    0.44786800
 H                  3.91509000    0.74329100    1.06065300
 H                 -4.01474900   -0.73634300    0.73590200
 H                 -5.59213800   -2.38654500   -0.06576000
 H                 -6.11514400   -4.73031800   -0.74319800
 H                 -5.33683600   -7.03557500   -1.20154400
 H                 -2.91737100   -7.56921800   -1.10858200
 H                 -0.56814400   -6.86603600   -0.75327400
 H                  1.05907400   -5.09024600   -0.16579800
 H                 -4.65238300    2.09595300   -2.10921400
 H                 -2.48341400    1.012400   -1.61479700
 H                 -3.18392100    1.53808200    2.58536100
 H                 -5.33621900    2.662200    2.08932200
 O                  1.27014900   -0.55120400    2.45161600
 O                 -1.42358000   -0.16683200    2.06052400
 C                 -6.40845900    3.12699400   -0.38396700
 C                  6.40629100   -2.96148400   -0.48337500
 F                  6.18534200   -4.17422200   -1.05940000
 F                  7.22422500   -3.18378200    0.57149300
 F                  7.11258100   -2.23711900   -1.38532600
 F                 -7.18662800    2.32545500   -1.15379700
 F                 -7.13735200    3.46460400    0.70012800
 F                 -6.21322200    4.26428100   -1.09834300
