77
0 1
 C                  4.71300700    6.14939200   -0.89637800
 C                  3.36069400    6.47272100   -0.97674100
 C                  2.37004200    5.51758300   -0.69221600
 C                  2.76996000    4.20065200   -0.32747100
 C                  4.15286600    3.88300300   -0.24161100
 C                  5.11001300    4.86865200   -0.52810700
 C                  1.79232000    3.20729600   -0.04518200
 C                  2.16955000    1.880900    0.31895000
 C                  3.565000    1.62161200    0.46053600
 C                  4.51347000    2.56739300    0.17254900
 C                  0.97188500    5.82405300   -0.74986300
 C                  0.03221800    4.87991400   -0.46087300
 C                  0.41639900    3.54731500   -0.10959400
 N                 -0.54979200    2.65228200    0.17527800
 C                 -0.19510000    1.41462200    0.46956100
 C                  1.12374600    0.94251000    0.51970700
 C                 -1.30874100    0.46074100    0.99550700
 C                 -1.17125800   -0.943600    0.45382800
 C                  0.15239600   -1.45159500    0.48664800
 C                  1.25315900   -0.50034500    1.03112100
 C                 -2.20169600   -1.92406000    0.20031800
 C                 -1.79900700   -3.27381600   -0.06635100
 C                 -0.42304700   -3.61356500   -0.011000
 N                  0.52406500   -2.69949300    0.218600
 C                 -2.74952500   -4.29216100   -0.36356500
 C                 -2.31938300   -5.62733800   -0.61787100
 C                 -0.92153200   -5.92915000   -0.55020800
 C                 -0.01045700   -4.96214100   -0.24981400
 C                 -3.61891800   -1.66924400    0.19616600
 C                 -4.52731300   -2.64324800   -0.09536800
 C                 -4.13667500   -3.98412600   -0.39473600
 C                 -5.06455400   -4.99586900   -0.69261600
 C                 -4.63595500   -6.29340700   -0.95570800
 C                 -3.28053500   -6.60826400   -0.91640100
 C                  2.62814900   -1.14410900    0.69827100
 C                 -2.66183100    1.16579300    0.69086300
 C                 -3.48211800    1.67567500    1.68830700
 C                 -4.68390000    2.31614900    1.35954500
 C                 -5.06456500    2.44860400    0.02847900
 C                 -4.23050700    1.95362000   -0.98324800
 C                 -3.03923100    1.32638400   -0.65284900
 C                  3.05672000   -1.12385400   -0.63738900
 C                  4.27673300   -1.67870400   -0.99823800
 C                  5.08554300   -2.264400   -0.02575600
 C                  4.667100   -2.29669600    1.30248100
 C                  3.44079300   -1.720800    1.66312100
 H                  4.60123400   -1.64312300   -2.03078900
 H                  2.44115300   -0.65265600   -1.39376200
 H                  3.12297800   -1.74086400    2.69809600
 H                  5.29049400   -2.75437000    2.05995000
 H                 -1.02711200    5.10297400   -0.49510500
 H                  0.67194300    6.82882800   -1.02605500
 H                  3.05980900    7.47565000   -1.25828800
 H                  5.45946600    6.90271900   -1.11756400
 H                  6.16294000    4.62050100   -0.45688100
 H                  5.565000    2.32871200    0.28795100
 H                  3.92061000    0.67184700    0.82737400
 H                 -3.98939800   -0.69204200    0.44537000
 H                 -5.58494600   -2.40308000   -0.08423700
 H                 -6.12133300   -4.75471900   -0.71427200
 H                 -5.36106700   -7.06457400   -1.18657000
 H                 -2.95335200   -7.62325100   -1.11260400
 H                 -0.59975700   -6.94709200   -0.74002000
 H                  1.04944100   -5.118600   -0.19114000
 H                 -4.51568100    2.05236200   -2.02360500
 H                 -2.40121700    0.94283100   -1.43958200
 H                 -3.19484200    1.57039900    2.72691900
 H                 -5.31945600    2.70092300    2.14641800
 O                  0.99193900   -0.40701800    2.39993800
 O                 -1.05180400    0.32998700    2.36416100
 C                 -6.36263500    3.10753300   -0.3500
 C                  6.36676300   -2.94873200   -0.44532700
 F                  6.13908000   -4.15292300   -1.03329000
 F                  7.19983800   -3.18115600    0.59241100
 F                  7.052000   -2.216600   -1.352400
 F                 -7.12678400    2.29701600   -1.13402400
 F                 -7.11700600    3.45242200    0.70755900
 F                 -6.16940900    4.23938300   -1.08237500
