77
0 1
 C                 -5.38151500   -5.68524200   -0.62863100
 C                 -4.09871700   -6.06753900   -1.01244500
 C                 -3.00756500   -5.20350800   -0.83456100
 C                 -3.23611700   -3.91282500   -0.27695700
 C                 -4.54809400   -3.53493100    0.12366200
 C                 -5.60656400   -4.43629500   -0.05545100
 C                 -2.15410400   -3.00299100   -0.11547900
 C                 -2.37755200   -1.67966900    0.37121300
 C                 -3.70283900   -1.35604700    0.83150200
 C                 -4.72614100   -2.24378700    0.71779000
 C                 -1.66559800   -5.57632500   -1.18292600
 C                 -0.62070700   -4.73150200   -0.97321100
 C                 -0.82845800   -3.42223500   -0.42577100
 N                  0.24349400   -2.64960200   -0.16766500
 C                  0.01288200   -1.41294400    0.24862200
 C                 -1.24524000   -0.83880700    0.41060600
 C                  1.14099300   -0.58715900    0.88406400
 C                  1.24524500    0.83884900    0.41064100
 C                 -0.01282300    1.41300200    0.24858200
 C                 -1.14101000    0.58724700    0.88377300
 C                  2.37754000    1.67966300    0.37111300
 C                  2.15411600    3.00304500   -0.11545600
 C                  0.82846600    3.42236600   -0.42561100
 N                 -0.24345700    2.64974800   -0.16755600
 C                  3.23615300    3.91286800   -0.27693100
 C                  3.00760200    5.20359800   -0.83443700
 C                  1.66560600    5.57649000   -1.18268200
 C                  0.62072100    4.73170700   -0.97295300
 C                  3.70288300    1.35600500    0.83134500
 C                  4.72618300    2.24370700    0.71764100
 C                  4.54815000    3.53491000    0.12357800
 C                  5.60662300    4.43623200   -0.05555800
 C                  5.38157200    5.68522400   -0.62865900
 C                  4.09876800    6.06759400   -1.01235600
 C                 -2.43540400    1.36139500    0.71313500
 C                  2.43535800   -1.36140300    0.71326300
 C                  3.10844000   -2.11035100    1.66878000
 C                  4.27909400   -2.79706200    1.31639700
 C                  4.75943400   -2.74061000    0.00936100
 C                  4.07221900   -2.00233300   -0.95645900
 C                  2.92050000   -1.32991100   -0.60482900
 C                 -2.92058300    1.32990300   -0.60493200
 C                 -4.07230200    2.00234000   -0.95651600
 C                 -4.75948300    2.74059300    0.00934200
 C                 -4.27912400    2.79701100    1.31637600
 C                 -3.10845500    2.11030100    1.66871200
 H                 -4.43368600    1.96751100   -1.97619600
 H                 -2.38743800    0.76901400   -1.36092900
 H                 -2.73716000    2.15838600    2.68438200
 H                 -4.80561700    3.37872300    2.06194400
 H                  0.39673900   -5.01785000   -1.20584500
 H                 -1.49670700   -6.56184100   -1.60250400
 H                 -3.93157600   -7.04628100   -1.44842100
 H                 -6.21001800   -6.36919300   -0.77005600
 H                 -6.60498200   -4.15053300    0.25600800
 H                 -5.71102500   -1.97587900    1.08461800
 H                 -3.88909200   -0.40506800    1.30064800
 H                  3.88914700    0.40499100    1.30040500
 H                  5.71108500    1.97576100    1.08440300
 H                  6.60505600    4.15042300    0.25581600
 H                  6.21009300    6.36915100   -0.77010900
 H                  3.93163200    7.04636400   -1.44827400
 H                  1.49673100    6.56204600   -1.60217600
 H                 -0.39673700    5.01809200   -1.20549500
 H                  4.43357200   -1.96747400   -1.97614900
 H                  2.38733900   -0.76901400   -1.36080900
 H                  2.73718200   -2.15844100    2.68446100
 H                  4.80560100   -3.37878800    2.06194300
 O                 -0.61693400    0.43167400    2.29988200
 O                  0.61693600   -0.43223800    2.30019600
 C                  6.03604000   -3.41792700   -0.40174800
 C                 -6.03608300    3.41792500   -0.40175400
 F                 -6.32366500    4.50194900    0.34916900
 F                 -7.10468600    2.58401700   -0.30765800
 F                 -5.99639800    3.82865500   -1.69308700
 F                  6.32365300   -4.50193800    0.34918700
 F                  5.99635100   -3.82867800   -1.69307500
 F                  7.10463800   -2.58400700   -0.30767500

