77
0 1
 C                  7.81297000   -0.16682400   -0.68143200
 C                  7.16975000   -1.33571500   -1.09037500
 C                  5.78603500   -1.49489100   -0.91372000
 C                  5.04278000   -0.43748000   -0.31560100
 C                  5.70114700    0.75176000    0.09821700
 C                  7.09331300    0.86470100   -0.09155200
 C                  3.64244200   -0.56999600   -0.12478700
 C                  2.87112100    0.49067800    0.42637400
 C                  3.56588100    1.65784700    0.86960100
 C                  4.92060300    1.655000    0.71174100
 C                  5.09528600   -2.68555800   -1.30589800
 C                  3.75201300   -2.82723200   -1.09380700
 C                  2.99512400   -1.78387800   -0.48589800
 N                  1.68601100   -1.99868100   -0.22034000
 C                  0.95822700   -1.02911400    0.29974800
 C                  1.45967600    0.30016900    0.50358100
 C                 -0.45053000   -1.39960700    0.82817800
 C                 -1.45949000   -0.30014100    0.50379200
 C                 -0.95793600    1.02915800    0.29983100
 C                  0.45073700    1.39954000    0.82862200
 C                 -2.87100700   -0.49063800    0.42688400
 C                 -3.64222200    0.56986800   -0.12470300
 C                 -2.99480400    1.78355900   -0.48633300
 N                 -1.68565900    1.99845700   -0.22071900
 C                 -5.04254100    0.43734400   -0.31551000
 C                 -5.78570700    1.49452500   -0.91413400
 C                 -5.094800    2.68493600   -1.30685100
 C                 -3.75156900    2.82663900   -1.09475300
 C                 -3.56574500   -1.65759800    0.87048200
 C                 -4.92052100   -1.628200    0.71266400
 C                 -5.70097300   -0.75168100    0.09879200
 C                 -7.09318300   -0.86460200   -0.09093400
 C                 -7.81275900    0.16670000   -0.68126400
 C                 -7.16943600    1.33536400   -1.09073600
 C                  0.82386800    2.81216300    0.36116500
 C                 -0.82395100   -2.81205600    0.36076800
 C                 -1.22744500   -3.10127000   -0.94042900
 C                 -1.54969500   -4.40866700   -1.29887200
 C                 -1.46256800   -5.43814700   -0.35954700
 C                 -1.04832800   -5.15241300    0.94054200
 C                 -0.73092400   -3.843300    1.29528600
 C                  0.73046700    3.84382500    1.29570600
 C                  1.04740800    5.15260000    0.94103900
 C                  1.46160800    5.43854700   -0.35901200
 C                  1.54911800    4.40913000   -1.29837500
 C                  1.22726700    3.10160600   -0.94001900
 H                  1.71556900    6.45430200   -0.64113200
 H                 -1.71686600   -6.45380200   -0.64172000
 H                  3.22820300   -3.73508300   -1.36585800
 H                  5.66226300   -3.48690600   -1.76611400
 H                  7.73988200   -2.13666600   -1.54722300
 H                  8.88200700   -0.06550100   -0.82287200
 H                  7.59910700    1.76767900    0.23094200
 H                  5.42361800    2.66927800    1.06639900
 H                  3.01461100    2.44029200    1.36624800
 H                 -1.29899000   -2.30440600   -1.67343500
 H                 -1.87269300   -4.62635100   -2.31111100
 H                 -0.42096800   -3.60069900    2.30367500
 H                 -0.97418600   -5.94618900    1.67586300
 H                  0.42057800    3.60056600    2.30406400
 H                  0.97295300    5.94631200    1.67640100
 H                  1.87208000    4.62696900   -2.31059400
 H                  1.29906500    2.30482100   -1.67308500
 H                 -3.221000    3.73434000   -1.36719900
 H                 -5.66176800    3.48610200   -1.76748600
 H                 -7.73950400    2.13614900   -1.54795400
 H                 -8.88180100    0.06540000   -0.82266300
 H                 -7.59903500   -1.76740700    0.23194600
 H                 -5.42357100   -2.66886800    1.06762400
 H                 -3.01449500   -2.43988700    1.36740200
 O                 -0.43936700   -1.29068000    2.18725400
 O                  0.43869300    1.29111300    2.18769100
