72
0 1
 C                  7.79952800   -0.13865000   -0.69809600
 C                  7.16058300   -1.31305500   -1.09299800
 C                  5.78099100   -1.48342400   -0.89196100
 C                  5.04049000   -0.42846600   -0.28715800
 C                  5.69470500    0.76962900    0.10902000
 C                  7.08090100    0.89168700   -0.10115600
 C                  3.64396300   -0.57198500   -0.07640500
 C                  2.87060500    0.49138800    0.46096700
 C                  3.56208200    1.66593700    0.89795100
 C                  4.91222600    1.79312000    0.72794900
 C                  5.09319100   -2.68326900   -1.26328900
 C                  3.759300   -2.83826500   -1.02001700
 C                  3.00275800   -1.79548800   -0.40959200
 N                  1.69908200   -2.01616100   -0.12798900
 C                  0.96393900   -1.032400    0.35121300
 C                  1.46189500    0.29754500    0.52862200
 C                 -0.46626500   -1.39768000    0.82798100
 C                 -1.46031900   -0.29834400    0.53617800
 C                 -0.95888000    1.03561400    0.36033000
 C                  0.47103600    1.39484500    0.84506300
 C                 -2.87215100   -0.49302500    0.47010000
 C                 -3.64220900    0.56930800   -0.07269600
 C                 -2.99934100    1.79207800   -0.40805600
 N                 -1.69363300    2.01320000   -0.12547800
 C                 -5.03795000    0.42650700   -0.28560200
 C                 -5.736900    1.48143700   -0.89144500
 C                 -5.08906400    2.67984000   -1.26261200
 C                 -3.75211900    2.83392500   -1.01863200
 C                 -3.56188800   -1.66630300    0.903900
 C                 -4.91346200   -1.79406800    0.72907100
 C                 -5.69301700   -0.079800    0.11028200
 C                 -7.08074000   -0.89193000   -0.10097600
 C                 -7.79811400    0.13810600   -0.69801000
 C                 -7.15722400    1.31221700   -1.09288500
 C                  0.83641100    2.80435700    0.32642900
 C                 -0.83517800   -2.80506400    0.31996600
 C                 -1.25502800   -3.04547400   -0.99016400
 C                 -1.58523700   -4.33896700   -1.39684900
 C                 -1.49128200   -5.40628100   -0.50118300
 C                 -1.06087800   -5.17089500    0.80439800
 C                 -0.73621900   -3.87638000    1.20913100
 C                  0.73788700    3.87893300    1.21182600
 C                  1.06092900    5.17290100    0.80356100
 C                  1.49004300    5.40552100   -0.50289700
 C                  1.58275400    4.33555300   -1.39584200
 C                  1.25291700    3.04276600   -0.98556100
 H                  1.75149000    6.40649200   -0.83125000
 H                 -1.75304700   -6.40799900   -0.82648900
 H                  3.23789200   -3.75638500   -1.26492700
 H                  5.65963500   -3.48346600   -1.72549600
 H                  7.72908600   -2.10914900   -1.56005000
 H                  8.86473900   -0.02626200   -0.86081900
 H                  7.58463700    1.80174300    0.20536900
 H                  5.41300600    2.69081100    1.07363400
 H                  3.00860600    2.44492900    1.39808000
 H                 -1.33884700   -2.22215700   -1.69334900
 H                 -1.92322200   -4.50978200   -2.41489100
 H                 -0.41452400   -3.68182500    2.22452400
 H                 -0.97861100   -5.99616600    1.50316400
 H                  0.41927300    3.68537600    2.22822000
 H                  0.97939200    5.99984100    1.50068900
 H                  1.91907300    4.50361000   -2.41504800
 H                  1.33541200    2.21806900   -1.68735200
 H                 -3.23180800    3.75164500   -1.26366500
 H                 -5.65387900    3.48055600   -1.725600
 H                 -7.72478200    2.10889700   -1.55990400
 H                 -8.86323200    0.02695200   -0.86121300
 H                 -7.58490600   -1.80165700    0.20556300
 H                 -5.41427600   -2.69272900    1.07197200
 H                 -3.00973100   -2.44446300    1.40697900
 O                 -0.53568400   -1.27326000    2.19169300
 O                  0.50491700    1.29721300    2.20993500
