72
0 1
 C                  7.84064900   -0.19612900   -0.67482700
 C                  7.21101700   -1.36736200   -1.08748900
 C                  5.82555700   -1.53018000   -0.93505800
 C                  5.06612400   -0.46553600   -0.37123800
 C                  5.71900300    0.72315100    0.05994000
 C                  7.10728100    0.83714600   -0.09689200
 C                  3.65608900   -0.59119800   -0.23339800
 C                  2.86991700    0.49709000    0.24913400
 C                  3.566500    1.65914700    0.73585800
 C                  4.92067000    1.75366000    0.65466200
 C                  5.14668500   -2.736600   -1.311200
 C                  3.80729000   -2.88331900   -1.12373500
 C                  3.01962200   -1.81971700   -0.57159300
 N                  1.71219700   -2.03742600   -0.33071400
 C                  0.99525300   -1.00402700    0.08496600
 C                  1.47524900    0.28923100    0.25282200
 C                 -0.39128200   -1.21973500    0.71701700
 C                 -1.47528300   -0.28902500    0.25189100
 C                 -0.99562200    1.00375700    0.08361600
 C                  0.39037500    1.22119200    0.71419000
 C                 -2.86932500   -0.49692700    0.24823900
 C                 -3.65595500    0.59133300   -0.23358400
 C                 -3.01959800    1.81982100   -0.57185700
 N                 -1.71289200    2.03792300   -0.33102400
 C                 -5.06611500    0.46556400   -0.37120800
 C                 -5.82550700    1.53000700   -0.93546800
 C                 -5.14641600    2.73755300   -1.31234000
 C                 -3.80742600    2.88318800   -1.12489100
 C                 -3.56652000   -1.65895700    0.73633000
 C                 -4.92026200   -1.75343500    0.65560200
 C                 -5.71904400   -0.72304800    0.06033100
 C                 -7.10702400   -0.83707500   -0.09636800
 C                 -7.84041600    0.19616700   -0.67470500
 C                 -7.21087300    1.36715000   -1.08787100
 C                  0.75283400    2.68608200    0.55146900
 C                 -0.752100   -2.68565200    0.55185200
 C                 -1.14225600   -3.04200400   -0.75298100
 C                 -1.46024400   -4.35485400   -1.06824600
 C                 -1.38725000   -5.34007900   -0.07897800
 C                 -0.98595300   -4.99233500    1.20850900
 C                 -0.65983700   -3.66687500    1.52615500
 C                  0.65947800    3.666000    1.52642200
 C                  0.98514000    4.99241000    1.20904600
 C                  1.38639000    5.34042700   -0.07841900
 C                  1.45988600    4.35551600   -1.06798100
 C                  1.14240000    3.04262500   -0.75303100
 H                  1.63839100    6.37238000   -0.29637600
 H                 -1.63962300   -6.37191200   -0.29709400
 H                  3.29812400   -3.80619500   -1.37383500
 H                  5.73326900   -3.55152600   -1.72506300
 H                  7.79375500   -2.17283700   -1.52121100
 H                  8.91317400   -0.09409900   -0.79224100
 H                  7.60675900    1.73941100    0.232500
 H                  5.41996400    2.63564300    1.03936200
 H                  3.00887000    2.46628200    1.18237300
 H                 -1.19157300   -2.28223900   -1.52326100
 H                 -1.759500   -4.61838500   -2.07605500
 H                 -0.34925800   -3.39512700    2.52965400
 H                 -0.92692000   -5.74301900    1.99023600
 H                  0.34865100    3.39486300    2.52984100
 H                  0.92567900    5.74304200    1.99076000
 H                  1.75943600    4.61933400   -2.07568800
 H                  1.19185700    2.28279700   -1.52323200
 H                 -3.29800100    3.80585500   -1.37530500
 H                 -5.73311700    3.55110100   -1.72640300
 H                 -7.79355500    2.17243200   -1.52204500
 H                 -8.91298300    0.09408400   -0.79202000
 H                 -7.60661000   -1.73917300    0.23859400
 H                 -5.41969400   -2.63520100    1.04073000
 H                 -3.008600   -2.46599600    1.18289800
 O                 -0.13250200   -0.72052000    2.13953400
 O                  0.13434800    0.71717200    2.13589200
