72
0 1
 C                  7.82803000   -0.106100   -0.68124600
 C                  7.19048100   -1.34633300   -1.09181700
 C                  5.80568000   -1.50996200   -0.92169700
 C                  5.05638200   -0.45267400   -0.33168500
 C                  5.71325900    0.73642600    0.09004400
 C                  7.10316100    0.85269900   -0.09130200
 C                  3.65197900   -0.58373600   -0.16218200
 C                  2.87168400    0.48807500    0.36215100
 C                  3.57141100    1.65130100    0.82883200
 C                  4.92652900    1.76097000    0.70139700
 C                  5.11901800   -2.70345500   -1.31623700
 C                  3.585200   -2.84444200   -1.11958800
 C                  3.00722000   -1.79510400   -0.52961000
 N                  1.69585300   -2.00935200   -0.27887400
 C                  0.98058500   -1.01359100    0.21385600
 C                  1.47057000    0.29388400    0.40449300
 C                 -0.41932400   -1.32767100    0.82552000
 C                 -1.47048100   -0.29381900    0.40483900
 C                 -0.98046600    1.01356600    0.21389700
 C                  0.41943000    1.32767500    0.82549700
 C                 -2.87158400   -0.48802900    0.36248500
 C                 -3.65180800    0.58363700   -0.16221600
 C                 -3.00697200    1.79481800   -0.53014100
 N                 -1.69561300    2.00914800   -0.27935100
 C                 -5.05621100    0.45257500   -0.33165700
 C                 -5.80543800    1.50963800   -0.92215200
 C                 -5.11869500    2.70289000   -1.31726600
 C                 -3.551600    2.84389700   -1.12066500
 C                 -3.57132000   -1.65105300    0.82960300
 C                 -4.92646300   -1.76067400    0.70230000
 C                 -5.71314300   -0.73631100    0.09058900
 C                 -7.10306100   -0.85257400   -0.09068600
 C                 -7.82786900    0.17696500   -0.68108700
 C                 -7.19025200    1.34601400   -1.09219200
 C                  0.79816400    2.835400    0.44922500
 C                 -0.79830500   -2.822800    0.44900800
 C                 -1.19610200   -3.07178500   -0.85924100
 C                 -1.51276900   -4.370000   -1.22148100
 C                 -1.43438900   -5.40600500   -0.28012300
 C                 -1.03087400   -5.11616400    1.02088400
 C                 -0.70984700   -3.80595700    1.38418600
 C                  0.70923800    3.80594100    1.38452200
 C                  1.02987200    5.11630200    1.02142900
 C                  1.43341300    5.40645300   -0.27950000
 C                  1.51225800    4.37829300   -1.220900
 C                  1.19602400    3.07222200   -0.85894000
 H                  1.68361100    6.42319300   -0.56041300
 H                 -1.68493400   -6.42261900   -0.56118500
 H                  3.25571300   -3.75335300   -1.39592200
 H                  5.69182300   -3.50549900   -1.76832500
 H                  7.76478000   -2.14600400   -1.54604600
 H                  8.89740500   -0.07215400   -0.81928200
 H                  7.60584300    1.75659100    0.23392700
 H                  5.42991400    2.64533200    1.07640800
 H                  3.02257600    2.44041100    1.31668700
 H                 -1.26020100   -2.28121300   -1.59856600
 H                 -1.82207100   -4.59250700   -2.23833200
 H                 -0.39511400   -3.518600    2.39534300
 H                 -0.96283000   -5.90836600    1.75818700
 H                  0.39444300    3.57693700    2.39560600
 H                  0.96147400    5.90838500    1.75882700
 H                  1.82160000    4.59333500   -2.236700
 H                  1.26056900    2.28176400   -1.59835000
 H                 -3.25532500    3.75264800   -1.39743200
 H                 -5.69144400    3.50474600   -1.76975400
 H                 -7.76450200    2.14550700   -1.54679700
 H                 -8.89725100    0.07206100   -0.81906600
 H                 -7.60579700   -1.75629300    0.23493900
 H                 -5.42989100   -2.64486000    1.066700
 H                 -3.02247100   -2.44006100    1.31761500
 O                 -0.29148100   -1.12890000    2.18647500
 O                  0.29189000    1.12882700    2.18649400
