77
0 1
 C                  7.80427600   -0.14878000   -0.69114700
 C                  7.16187800   -1.32052900   -1.09269300
 C                  5.78061600   -1.48481100   -0.90138500
 C                  5.03996900   -0.42881200   -0.29793400
 C                  5.69639200    0.76483900    0.10473500
 C                  7.08637500    0.88188500   -0.09737300
 C                  3.64262100   -0.561200   -0.09036900
 C                  2.87325200    0.49180500    0.46015300
 C                  3.56435000    1.66389200    0.89155200
 C                  4.91691000    1.78868400    0.72117900
 C                  5.09051300   -2.67964300   -1.28168900
 C                  3.75125700   -2.82948200   -1.04783500
 C                  2.99843400   -1.78888700   -0.43219100
 N                  1.69293100   -2.00680300   -0.15169100
 C                  0.95623400   -1.03709200    0.35268700
 C                  1.45883300    0.30036200    0.54500600
 C                 -0.46796600   -1.41708400    0.82822600
 C                 -1.45823800   -0.30050000    0.54635700
 C                 -0.95466500    1.03784300    0.35480900
 C                  0.46915700    1.41628000    0.83338000
 C                 -2.87348500   -0.49213900    0.46293300
 C                 -3.64194700    0.56701700   -0.08912300
 C                 -2.99723300    1.78781000   -0.43205700
 N                 -1.69116900    2.00600400   -0.15133600
 C                 -5.03904600    0.42820300   -0.29728000
 C                 -5.932900    1.48397400   -0.90144900
 C                 -5.08906000    2.67823200   -1.28214900
 C                 -3.74937600    2.82789800   -1.04814200
 C                 -3.56404600   -1.66380400    0.89382700
 C                 -4.91702600   -1.788500    0.72226000
 C                 -5.69570700   -0.76513700    0.10560000
 C                 -7.08610400   -0.88197100   -0.09684800
 C                 -7.80362300    0.14844600   -0.69099300
 C                 -7.16065700    1.31996400   -1.09289700
 C                  0.83607100    2.81417200    0.32066400
 C                 -0.835800   -2.81426900    0.31836700
 C                 -1.24896100   -3.07623200   -0.98518100
 C                 -1.526000   -4.37587300   -1.36820700
 C                 -1.48351900   -5.42486600   -0.45182200
 C                 -1.05705100   -5.16693800    0.85072900
 C                 -0.73727400   -3.86642700    1.22999900
 C                  0.73752500    3.86724200    1.23123200
 C                  1.05659800    5.16765000    0.85088000
 C                  1.48254700    5.42482600   -0.45196400
 C                  1.576000    4.37505600   -1.36754800
 C                  1.24809600    3.07557400   -0.98345600
 H                  1.74053800    6.43394600   -0.75284500
 H                 -1.74181400   -6.43414200   -0.75182800
 H                  3.22984800   -3.74181700   -1.30942100
 H                  5.65552100   -3.47910900   -1.74768300
 H                  7.73100400   -2.11964900   -1.55408100
 H                  8.87181500   -0.04409100   -0.84190300
 H                  7.59232600    1.78697900    0.21886900
 H                  5.41890000    2.68528500    1.06702600
 H                  3.01129800    2.44484500    1.38848000
 H                 -1.32568300   -2.26294800   -1.69949800
 H                 -1.90972500   -4.57088500   -2.38160400
 H                 -0.42315300   -3.64384800    2.24242600
 H                 -0.906800   -5.97543600    1.56936700
 H                  0.42425700    3.64494700    2.24393900
 H                  0.97670100    5.97660700    1.56905800
 H                  1.90802100    4.56936000   -2.38128400
 H                  1.32453000    2.26193500   -1.69741600
 H                 -3.22788600    3.74003100   -1.31013500
 H                 -5.65362100    3.465600   -1.74871400
 H                 -7.72950800    2.11908500   -1.55458300
 H                 -8.87113500    0.04406500   -0.84188700
 H                 -7.59220700   -1.78687500    0.21962700
 H                 -5.41903400   -2.68552400    1.06763600
 H                 -3.01127800   -2.44443900    1.39158200
 O                 -0.53446300   -1.32161100    2.18749500
 O                  0.52485200    1.32864700    2.19286600
